
     RDKit          2D

  7  6  0  0  0  0  0  0  0  0999 V2000
   -1.7325   -0.5700    0.0000 R   0  0  0  0  0  0  0  0  0  0  0  0
   -0.8661   -0.0708    0.0000 N   0  0  0  0  0  0  0  0  0  0  0  0
   -0.8653    0.9292    0.0000 R   0  0  0  0  0  0  0  0  0  0  0  0
   -0.0005   -0.5714    0.0000 C   0  0  0  0  0  0  0  0  0  0  0  0
    0.8659   -0.0722    0.0000 C   0  0  0  0  0  0  0  0  0  0  0  0
    1.7315   -0.5728    0.0000 R   0  0  0  0  0  0  0  0  0  0  0  0
    0.8667    0.9278    0.0000 O   0  0  0  0  0  0  0  0  0  0  0  0
  1  2  1  0
  2  3  1  0
  2  4  1  0
  4  5  1  0
  5  6  1  0
  5  7  2  0
M  ISO  3   1   1   3   3   6   2
V    1 *
V    3 *
V    6 *
M  END
>  <symbol>  (1) 
G

>  <m_Rgroups>  (1) 
[H],[OH],[H],None,None,None

>  <m_abbr>  (1) 
G

>  <m_name>  (1) 
Glycine

>  <m_type>  (1) 
aa

>  <m_subtype>  (1) 
natural

>  <m_chem_types>  (1) 
1:backbone_n,2:backbone_c,3:backbone_n_mod

$$$$

     RDKit          2D

  8  7  0  0  0  0  0  0  0  0999 V2000
   -1.7322   -0.3736    0.0000 R   0  0  0  0  0  0  0  0  0  0  0  0
   -0.8660    0.1256    0.0000 N   0  0  0  0  0  0  0  0  0  0  0  0
   -0.8652    1.1256    0.0000 R   0  0  0  0  0  0  0  0  0  0  0  0
   -0.0002   -0.3750    0.0000 C   0  0  0  0  0  0  0  0  0  0  0  0
   -0.0010   -1.3750    0.0000 C   0  0  0  0  0  0  0  0  0  0  0  0
    0.8660    0.1244    0.0000 C   0  0  0  0  0  0  0  0  0  0  0  0
    1.7318   -0.3764    0.0000 R   0  0  0  0  0  0  0  0  0  0  0  0
    0.8668    1.1244    0.0000 O   0  0  0  0  0  0  0  0  0  0  0  0
  1  2  1  0
  2  3  1  0
  2  4  1  0
  4  5  1  6
  4  6  1  0
  6  7  1  0
  6  8  2  0
M  ISO  3   1   1   3   3   7   2
V    1 *
V    3 *
V    7 *
M  END
>  <symbol>  (2) 
A

>  <m_Rgroups>  (2) 
[H],[OH],[H],None,None,None

>  <m_abbr>  (2) 
A

>  <m_name>  (2) 
L-Alanine

>  <m_type>  (2) 
aa

>  <m_subtype>  (2) 
natural

>  <m_chem_types>  (2) 
1:backbone_n,2:backbone_c,3:backbone_n_mod

$$$$

     RDKit          2D

 10  9  0  0  0  0  0  0  0  0999 V2000
   -0.8630    1.5016    0.0000 R   0  0  0  0  0  0  0  0  0  0  0  0
   -0.8650    0.5018    0.0000 N   0  0  0  0  0  0  0  0  0  0  0  0
   -1.7320    0.0034    0.0000 R   0  0  0  0  0  0  0  0  0  0  0  0
   -0.0000   -0.0000    0.0000 C   0  0  0  0  0  0  0  0  0  0  0  0
    0.8670    0.4982    0.0000 C   0  0  0  0  0  0  0  0  0  0  0  0
    1.7320   -0.0034    0.0000 R   0  0  0  0  0  0  0  0  0  0  0  0
    0.8690    1.4982    0.0000 O   0  0  0  0  0  0  0  0  0  0  0  0
   -0.0020   -1.0000    0.0000 C   0  0  0  0  0  0  0  0  0  0  0  0
    0.8630   -1.5016    0.0000 C   0  0  0  0  0  0  0  0  0  0  0  0
   -0.8690   -1.4982    0.0000 C   0  0  0  0  0  0  0  0  0  0  0  0
  1  2  1  0
  2  3  1  0
  2  4  1  0
  4  5  1  0
  5  6  1  0
  5  7  2  0
  4  8  1  6
  8  9  1  0
  8 10  1  0
M  ISO  3   1   1   3   3   6   2
V    1 *
V    3 *
V    6 *
M  END
>  <symbol>  (3) 
V

>  <m_Rgroups>  (3) 
[H],[OH],[H],None,None,None

>  <m_abbr>  (3) 
V

>  <m_name>  (3) 
L-Valine

>  <m_type>  (3) 
aa

>  <m_subtype>  (3) 
natural

>  <m_chem_types>  (3) 
1:backbone_n,2:backbone_c,3:backbone_n_mod

$$$$

     RDKit          2D

 11 10  0  0  0  0  0  0  0  0999 V2000
   -1.1775    1.6841    0.0000 R   0  0  0  0  0  0  0  0  0  0  0  0
   -1.1795    0.6841    0.0000 N   0  0  0  0  0  0  0  0  0  0  0  0
   -2.0465    0.1859    0.0000 R   0  0  0  0  0  0  0  0  0  0  0  0
   -0.3145    0.1825    0.0000 C   0  0  0  0  0  0  0  0  0  0  0  0
   -0.3165   -0.8175    0.0000 C   0  0  0  0  0  0  0  0  0  0  0  0
    0.5485   -1.3193    0.0000 C   0  0  0  0  0  0  0  0  0  0  0  0
    0.5465   -2.3193    0.0000 C   0  0  0  0  0  0  0  0  0  0  0  0
    1.4155   -0.8209    0.0000 C   0  0  0  0  0  0  0  0  0  0  0  0
    0.5525    0.6807    0.0000 C   0  0  0  0  0  0  0  0  0  0  0  0
    1.4175    0.1789    0.0000 R   0  0  0  0  0  0  0  0  0  0  0  0
    0.5545    1.6807    0.0000 O   0  0  0  0  0  0  0  0  0  0  0  0
  1  2  1  0
  2  3  1  0
  2  4  1  0
  4  5  1  6
  5  6  1  0
  6  7  1  0
  6  8  1  0
  4  9  1  0
  9 10  1  0
  9 11  2  0
M  ISO  3   1   1   3   3  10   2
V    1 *
V    3 *
V   10 *
M  END
>  <symbol>  (4) 
L

>  <m_Rgroups>  (4) 
[H],[OH],[H],None,None,None

>  <m_abbr>  (4) 
L

>  <m_name>  (4) 
L-Leucine

>  <m_type>  (4) 
aa

>  <m_subtype>  (4) 
natural

>  <m_chem_types>  (4) 
1:backbone_n,2:backbone_c,3:backbone_n_mod

$$$$

     RDKit          2D

 11 10  0  0  0  0  0  0  0  0999 V2000
   -0.9413    1.7290    0.0000 R   0  0  0  0  0  0  0  0  0  0  0  0
   -0.9433    0.7292    0.0000 N   0  0  0  0  0  0  0  0  0  0  0  0
   -1.8103    0.2308    0.0000 R   0  0  0  0  0  0  0  0  0  0  0  0
   -0.0783    0.2274    0.0000 C   0  0  0  0  0  0  0  0  0  0  0  0
    0.7887    0.7256    0.0000 C   0  0  0  0  0  0  0  0  0  0  0  0
    1.6537    0.2240    0.0000 R   0  0  0  0  0  0  0  0  0  0  0  0
    0.7907    1.7256    0.0000 O   0  0  0  0  0  0  0  0  0  0  0  0
   -0.0803   -0.7726    0.0000 C   0  0  0  0  0  0  0  0  0  0  0  0
   -0.9473   -1.2708    0.0000 C   0  0  0  0  0  0  0  0  0  0  0  0
    0.7847   -1.2742    0.0000 C   0  0  0  0  0  0  0  0  0  0  0  0
    0.7827   -2.2742    0.0000 C   0  0  0  0  0  0  0  0  0  0  0  0
  1  2  1  0
  2  3  1  0
  4  2  1  6
  4  5  1  0
  5  6  1  0
  5  7  2  0
  4  8  1  0
  8  9  1  6
  8 10  1  0
 10 11  1  0
M  ISO  3   1   1   3   3   6   2
V    1 *
V    3 *
V    6 *
M  END
>  <symbol>  (5) 
I

>  <m_Rgroups>  (5) 
[H],[OH],[H],None,None,None

>  <m_abbr>  (5) 
I

>  <m_name>  (5) 
L-Isoleucine

>  <m_type>  (5) 
aa

>  <m_subtype>  (5) 
natural

>  <m_chem_types>  (5) 
1:backbone_n,2:backbone_c,3:backbone_n_mod

$$$$

     RDKit          2D

  9  9  0  0  0  0  0  0  0  0999 V2000
   -0.9077    1.2931    0.0000 R   0  0  0  0  0  0  0  0  0  0  0  0
   -0.7499    0.3057    0.0000 N   0  0  0  0  0  0  0  0  0  0  0  0
   -1.4561   -0.4023    0.0000 C   0  0  0  0  0  0  0  0  0  0  0  0
   -1.0011   -1.2927    0.0000 C   0  0  0  0  0  0  0  0  0  0  0  0
   -0.0137   -1.1351    0.0000 C   0  0  0  0  0  0  0  0  0  0  0  0
    0.1415   -0.1473    0.0000 C   0  0  0  0  0  0  0  0  0  0  0  0
    1.0321    0.3079    0.0000 C   0  0  0  0  0  0  0  0  0  0  0  0
    1.8713   -0.2357    0.0000 R   0  0  0  0  0  0  0  0  0  0  0  0
    1.0833    1.3065    0.0000 O   0  0  0  0  0  0  0  0  0  0  0  0
  1  2  1  0
  2  3  1  0
  3  4  1  0
  4  5  1  0
  5  6  1  0
  6  7  1  6
  7  8  1  0
  7  9  2  0
  6  2  1  0
M  ISO  2   1   1   8   2
V    1 *
V    8 *
M  END
>  <symbol>  (6) 
P

>  <m_Rgroups>  (6) 
[H],[OH],None,None,None,None

>  <m_abbr>  (6) 
P

>  <m_name>  (6) 
L-Proline

>  <m_type>  (6) 
aa

>  <m_subtype>  (6) 
natural

>  <m_chem_types>  (6) 
1:backbone_n,2:backbone_c

$$$$

     RDKit          2D

 14 14  0  0  0  0  0  0  0  0999 V2000
   -0.1314   -2.1423    0.0000 R   0  0  0  0  0  0  0  0  0  0  0  0
   -0.1278   -1.1425    0.0000 N   0  0  0  0  0  0  0  0  0  0  0  0
   -0.9920   -0.6393    0.0000 R   0  0  0  0  0  0  0  0  0  0  0  0
    0.7400   -0.6455    0.0000 C   0  0  0  0  0  0  0  0  0  0  0  0
    0.7436    0.3545    0.0000 C   0  0  0  0  0  0  0  0  0  0  0  0
   -0.1206    0.8575    0.0000 C   0  0  0  0  0  0  0  0  0  0  0  0
   -0.9884    0.3605    0.0000 C   0  0  0  0  0  0  0  0  0  0  0  0
   -1.8526    0.8637    0.0000 C   0  0  0  0  0  0  0  0  0  0  0  0
   -1.8492    1.8637    0.0000 C   0  0  0  0  0  0  0  0  0  0  0  0
   -0.9812    2.3607    0.0000 C   0  0  0  0  0  0  0  0  0  0  0  0
   -0.1172    1.8575    0.0000 C   0  0  0  0  0  0  0  0  0  0  0  0
    1.6042   -1.1487    0.0000 C   0  0  0  0  0  0  0  0  0  0  0  0
    1.6006   -2.1487    0.0000 R   0  0  0  0  0  0  0  0  0  0  0  0
    2.4720   -0.6517    0.0000 O   0  0  0  0  0  0  0  0  0  0  0  0
  1  2  1  0
  2  3  1  0
  2  4  1  0
  4  5  1  1
  5  6  1  0
  6  7  2  0
  7  8  1  0
  8  9  2  0
  9 10  1  0
 10 11  2  0
  4 12  1  0
 12 13  1  0
 12 14  2  0
 11  6  1  0
M  ISO  3   1   1   3   3  13   2
V    1 *
V    3 *
V   13 *
M  END
>  <symbol>  (7) 
F

>  <m_Rgroups>  (7) 
[H],[OH],[H],None,None,None

>  <m_abbr>  (7) 
F

>  <m_name>  (7) 
L-Phenylalanine

>  <m_type>  (7) 
aa

>  <m_subtype>  (7) 
natural

>  <m_chem_types>  (7) 
1:backbone_n,2:backbone_c,3:backbone_n_mod

$$$$

     RDKit          2D

 18 19  0  0  0  0  0  0  0  0999 V2000
   -1.7608   -2.8281    0.0000 R   0  0  0  0  0  0  0  0  0  0  0  0
   -1.7628   -1.8279    0.0000 N   0  0  0  0  0  0  0  0  0  0  0  0
   -2.6300   -1.3297    0.0000 R   0  0  0  0  0  0  0  0  0  0  0  0
   -0.8980   -1.3261    0.0000 C   0  0  0  0  0  0  0  0  0  0  0  0
   -0.9000   -0.3261    0.0000 C   0  0  0  0  0  0  0  0  0  0  0  0
   -0.0352    0.1757    0.0000 C   0  0  0  0  0  0  0  0  0  0  0  0
    0.8792   -0.2289    0.0000 C   0  0  0  0  0  0  0  0  0  0  0  0
    1.5468    0.5155    0.0000 N   0  0  0  0  0  0  0  0  0  0  0  0
    2.5414    0.4133    0.0000 R   0  0  0  0  0  0  0  0  0  0  0  0
    1.0448    1.3805    0.0000 C   0  0  0  0  0  0  0  0  0  0  0  0
    1.3518    2.3321    0.0000 C   0  0  0  0  0  0  0  0  0  0  0  0
    0.6812    3.0739    0.0000 C   0  0  0  0  0  0  0  0  0  0  0  0
   -0.2966    2.8639    0.0000 C   0  0  0  0  0  0  0  0  0  0  0  0
   -0.6034    1.9121    0.0000 C   0  0  0  0  0  0  0  0  0  0  0  0
    0.0672    1.1705    0.0000 C   0  0  0  0  0  0  0  0  0  0  0  0
   -0.0310   -1.8243    0.0000 C   0  0  0  0  0  0  0  0  0  0  0  0
   -0.0290   -2.8243    0.0000 R   0  0  0  0  0  0  0  0  0  0  0  0
    0.8340   -1.3227    0.0000 O   0  0  0  0  0  0  0  0  0  0  0  0
  1  2  1  0
  2  3  1  0
  2  4  1  0
  4  5  1  1
  5  6  1  0
  6  7  2  0
  7  8  1  0
  8  9  1  0
  8 10  1  0
 10 11  2  0
 11 12  1  0
 12 13  2  0
 13 14  1  0
 14 15  2  0
  4 16  1  0
 16 17  1  0
 16 18  2  0
 15  6  1  0
 15 10  1  0
M  ISO  4   1   1   3   3   9   4  17   2
V    1 *
V    3 *
V    9 *
V   17 *
M  END
>  <symbol>  (8) 
W

>  <m_Rgroups>  (8) 
[H],[OH],[H],[H],None,None

>  <m_abbr>  (8) 
W

>  <m_name>  (8) 
L-Tryptophan

>  <m_type>  (8) 
aa

>  <m_subtype>  (8) 
natural

>  <m_chem_types>  (8) 
1:backbone_n,2:backbone_c,3:backbone_n_mod,4:aromatic_nh

$$$$

     RDKit          2D

 11 10  0  0  0  0  0  0  0  0999 V2000
   -1.1771    1.8660    0.0000 R   0  0  0  0  0  0  0  0  0  0  0  0
   -1.1791    0.8660    0.0000 N   0  0  0  0  0  0  0  0  0  0  0  0
   -2.0463    0.3676    0.0000 R   0  0  0  0  0  0  0  0  0  0  0  0
   -0.3141    0.3642    0.0000 C   0  0  0  0  0  0  0  0  0  0  0  0
   -0.3163   -0.6358    0.0000 C   0  0  0  0  0  0  0  0  0  0  0  0
    0.5487   -1.1374    0.0000 C   0  0  0  0  0  0  0  0  0  0  0  0
    0.5467   -2.1374    0.0000 S   0  0  0  0  0  0  0  0  0  0  0  0
    1.4117   -2.6392    0.0000 C   0  0  0  0  0  0  0  0  0  0  0  0
    0.5529    0.8624    0.0000 C   0  0  0  0  0  0  0  0  0  0  0  0
    1.4179    0.3608    0.0000 R   0  0  0  0  0  0  0  0  0  0  0  0
    0.5549    1.8624    0.0000 O   0  0  0  0  0  0  0  0  0  0  0  0
  1  2  1  0
  2  3  1  0
  2  4  1  0
  4  5  1  6
  5  6  1  0
  6  7  1  0
  7  8  1  0
  4  9  1  0
  9 10  1  0
  9 11  2  0
M  ISO  3   1   1   3   3  10   2
V    1 *
V    3 *
V   10 *
M  END
>  <symbol>  (9) 
M

>  <m_Rgroups>  (9) 
[H],[OH],[H],None,None,None

>  <m_abbr>  (9) 
M

>  <m_name>  (9) 
L-Methionine

>  <m_type>  (9) 
aa

>  <m_subtype>  (9) 
natural

>  <m_chem_types>  (9) 
1:backbone_n,2:backbone_c,3:backbone_n_mod

$$$$

     RDKit          2D

 10  9  0  0  0  0  0  0  0  0999 V2000
   -1.0360    1.6020    0.0000 R   0  0  0  0  0  0  0  0  0  0  0  0
   -1.0380    0.6020    0.0000 N   0  0  0  0  0  0  0  0  0  0  0  0
   -1.9050    0.1038    0.0000 R   0  0  0  0  0  0  0  0  0  0  0  0
   -0.1730    0.1004    0.0000 C   0  0  0  0  0  0  0  0  0  0  0  0
   -0.1750   -0.8996    0.0000 C   0  0  0  0  0  0  0  0  0  0  0  0
    0.6900   -1.4014    0.0000 O   0  0  0  0  0  0  0  0  0  0  0  0
    0.6880   -2.4014    0.0000 R   0  0  0  0  0  0  0  0  0  0  0  0
    0.6940    0.5986    0.0000 C   0  0  0  0  0  0  0  0  0  0  0  0
    1.5590    0.0968    0.0000 R   0  0  0  0  0  0  0  0  0  0  0  0
    0.6960    1.5986    0.0000 O   0  0  0  0  0  0  0  0  0  0  0  0
  1  2  1  0
  2  3  1  0
  2  4  1  0
  4  5  1  6
  5  6  1  0
  6  7  1  0
  4  8  1  0
  8  9  1  0
  8 10  2  0
M  ISO  4   1   1   3   3   7   4   9   2
V    1 *
V    3 *
V    7 *
V    9 *
M  END
>  <symbol>  (10) 
S

>  <m_Rgroups>  (10) 
[H],[OH],[H],[H],None,None

>  <m_abbr>  (10) 
S

>  <m_name>  (10) 
L-Serine

>  <m_type>  (10) 
aa

>  <m_subtype>  (10) 
natural

>  <m_chem_types>  (10) 
1:backbone_n,2:backbone_c,3:backbone_n_mod,4:hydroxyl

$$$$

     RDKit          2D

 11 10  0  0  0  0  0  0  0  0999 V2000
   -0.9413    1.7290    0.0000 R   0  0  0  0  0  0  0  0  0  0  0  0
   -0.9433    0.7292    0.0000 N   0  0  0  0  0  0  0  0  0  0  0  0
   -1.8103    0.2308    0.0000 R   0  0  0  0  0  0  0  0  0  0  0  0
   -0.0783    0.2274    0.0000 C   0  0  0  0  0  0  0  0  0  0  0  0
    0.7887    0.7256    0.0000 C   0  0  0  0  0  0  0  0  0  0  0  0
    1.6537    0.2240    0.0000 R   0  0  0  0  0  0  0  0  0  0  0  0
    0.7907    1.7256    0.0000 O   0  0  0  0  0  0  0  0  0  0  0  0
   -0.0803   -0.7726    0.0000 C   0  0  0  0  0  0  0  0  0  0  0  0
   -0.9473   -1.2708    0.0000 C   0  0  0  0  0  0  0  0  0  0  0  0
    0.7847   -1.2742    0.0000 O   0  0  0  0  0  0  0  0  0  0  0  0
    0.7827   -2.2742    0.0000 R   0  0  0  0  0  0  0  0  0  0  0  0
  1  2  1  0
  2  3  1  0
  4  2  1  6
  4  5  1  0
  5  6  1  0
  5  7  2  0
  4  8  1  0
  8  9  1  1
  8 10  1  0
 10 11  1  0
M  ISO  4   1   1   3   3   6   2  11   4
V    1 *
V    3 *
V    6 *
V   11 *
M  END
>  <symbol>  (11) 
T

>  <m_Rgroups>  (11) 
[H],[OH],[H],[H],None,None

>  <m_abbr>  (11) 
T

>  <m_name>  (11) 
L-Threonine

>  <m_type>  (11) 
aa

>  <m_subtype>  (11) 
natural

>  <m_chem_types>  (11) 
1:backbone_n,2:backbone_c,3:backbone_n_mod,4:hydroxyl

$$$$

     RDKit          2D

 10  9  0  0  0  0  0  0  0  0999 V2000
   -1.0360    1.6020    0.0000 R   0  0  0  0  0  0  0  0  0  0  0  0
   -1.0380    0.6020    0.0000 N   0  0  0  0  0  0  0  0  0  0  0  0
   -1.9050    0.1038    0.0000 R   0  0  0  0  0  0  0  0  0  0  0  0
   -0.1730    0.1004    0.0000 C   0  0  0  0  0  0  0  0  0  0  0  0
   -0.1750   -0.8996    0.0000 C   0  0  0  0  0  0  0  0  0  0  0  0
    0.6900   -1.4014    0.0000 S   0  0  0  0  0  0  0  0  0  0  0  0
    0.6880   -2.4014    0.0000 R   0  0  0  0  0  0  0  0  0  0  0  0
    0.6940    0.5986    0.0000 C   0  0  0  0  0  0  0  0  0  0  0  0
    1.5590    0.0968    0.0000 R   0  0  0  0  0  0  0  0  0  0  0  0
    0.6960    1.5986    0.0000 O   0  0  0  0  0  0  0  0  0  0  0  0
  1  2  1  0
  2  3  1  0
  2  4  1  0
  4  5  1  6
  5  6  1  0
  6  7  1  0
  4  8  1  0
  8  9  1  0
  8 10  2  0
M  ISO  4   1   1   3   3   7   4   9   2
V    1 *
V    3 *
V    7 *
V    9 *
M  END
>  <symbol>  (12) 
C

>  <m_Rgroups>  (12) 
[H],[OH],[H],[H],None,None

>  <m_abbr>  (12) 
C

>  <m_name>  (12) 
L-Cysteine

>  <m_type>  (12) 
aa

>  <m_subtype>  (12) 
natural

>  <m_chem_types>  (12) 
1:backbone_n,2:backbone_c,3:backbone_n_mod,4:thiol

$$$$

     RDKit          2D

 16 16  0  0  0  0  0  0  0  0999 V2000
    0.2075   -2.5007    0.0000 R   0  0  0  0  0  0  0  0  0  0  0  0
    0.2111   -1.5007    0.0000 N   0  0  0  0  0  0  0  0  0  0  0  0
   -0.6531   -0.9977    0.0000 R   0  0  0  0  0  0  0  0  0  0  0  0
    1.0789   -1.0039    0.0000 C   0  0  0  0  0  0  0  0  0  0  0  0
    1.0825   -0.0039    0.0000 C   0  0  0  0  0  0  0  0  0  0  0  0
    0.2183    0.4991    0.0000 C   0  0  0  0  0  0  0  0  0  0  0  0
   -0.6495    0.0023    0.0000 C   0  0  0  0  0  0  0  0  0  0  0  0
   -1.5137    0.5055    0.0000 C   0  0  0  0  0  0  0  0  0  0  0  0
   -1.5101    1.5053    0.0000 C   0  0  0  0  0  0  0  0  0  0  0  0
   -2.3743    2.0085    0.0000 O   0  0  0  0  0  0  0  0  0  0  0  0
   -2.3707    3.0085    0.0000 R   0  0  0  0  0  0  0  0  0  0  0  0
   -0.6423    2.0023    0.0000 C   0  0  0  0  0  0  0  0  0  0  0  0
    0.2219    1.4991    0.0000 C   0  0  0  0  0  0  0  0  0  0  0  0
    1.9431   -1.5069    0.0000 C   0  0  0  0  0  0  0  0  0  0  0  0
    1.9395   -2.5069    0.0000 R   0  0  0  0  0  0  0  0  0  0  0  0
    2.8109   -1.0101    0.0000 O   0  0  0  0  0  0  0  0  0  0  0  0
  1  2  1  0
  2  3  1  0
  2  4  1  0
  4  5  1  1
  5  6  1  0
  6  7  1  0
  7  8  2  0
  8  9  1  0
  9 10  1  0
 10 11  1  0
  9 12  2  0
 12 13  1  0
  4 14  1  0
 14 15  1  0
 14 16  2  0
 13  6  2  0
M  ISO  4   1   1   3   3  11   4  15   2
V    1 *
V    3 *
V   11 *
V   15 *
M  END
>  <symbol>  (13) 
Y

>  <m_Rgroups>  (13) 
[H],[OH],[H],[H],None,None

>  <m_abbr>  (13) 
Y

>  <m_name>  (13) 
L-Tyrosine

>  <m_type>  (13) 
aa

>  <m_subtype>  (13) 
natural

>  <m_chem_types>  (13) 
1:backbone_n,2:backbone_c,3:backbone_n_mod,4:hydroxyl_phenolic

$$$$

     RDKit          2D

 14 14  0  0  0  0  0  0  0  0999 V2000
   -0.2862   -2.1979    0.0000 R   0  0  0  0  0  0  0  0  0  0  0  0
   -0.2822   -1.1981    0.0000 N   0  0  0  0  0  0  0  0  0  0  0  0
   -1.1462   -0.6947    0.0000 R   0  0  0  0  0  0  0  0  0  0  0  0
    0.5858   -0.7015    0.0000 C   0  0  0  0  0  0  0  0  0  0  0  0
    0.5898    0.2983    0.0000 C   0  0  0  0  0  0  0  0  0  0  0  0
   -0.2740    0.8017    0.0000 C   0  0  0  0  0  0  0  0  0  0  0  0
   -1.1894    0.3985    0.0000 C   0  0  0  0  0  0  0  0  0  0  0  0
   -1.8552    1.1443    0.0000 N   0  0  0  0  0  0  0  0  0  0  0  0
   -1.3522    2.0085    0.0000 C   0  0  0  0  0  0  0  0  0  0  0  0
   -0.3748    1.7965    0.0000 N   0  0  0  0  0  0  0  0  0  0  0  0
    0.3710    2.4629    0.0000 R   0  0  0  0  0  0  0  0  0  0  0  0
    1.4500   -1.2049    0.0000 C   0  0  0  0  0  0  0  0  0  0  0  0
    1.4460   -2.2049    0.0000 R   0  0  0  0  0  0  0  0  0  0  0  0
    2.3180   -0.7085    0.0000 O   0  0  0  0  0  0  0  0  0  0  0  0
  1  2  1  0
  2  3  1  0
  2  4  1  0
  4  5  1  1
  5  6  1  0
  6  7  2  0
  7  8  1  0
  8  9  2  0
  9 10  1  0
 10 11  1  0
  4 12  1  0
 12 13  1  0
 12 14  2  0
 10  6  1  0
M  ISO  4   1   1   3   3  11   4  13   2
V    1 *
V    3 *
V   11 *
V   13 *
M  END
>  <symbol>  (14) 
H

>  <m_Rgroups>  (14) 
[H],[OH],[H],[H],None,None

>  <m_abbr>  (14) 
H

>  <m_name>  (14) 
L-Histidine

>  <m_type>  (14) 
aa

>  <m_subtype>  (14) 
natural

>  <m_chem_types>  (14) 
1:backbone_n,2:backbone_c,3:backbone_n_mod,4:aromatic_nh

$$$$

     RDKit          2D

 11 10  0  0  0  0  0  0  0  0999 V2000
   -1.1775    1.6841    0.0000 R   0  0  0  0  0  0  0  0  0  0  0  0
   -1.1795    0.6841    0.0000 N   0  0  0  0  0  0  0  0  0  0  0  0
   -2.0465    0.1859    0.0000 R   0  0  0  0  0  0  0  0  0  0  0  0
   -0.3145    0.1825    0.0000 C   0  0  0  0  0  0  0  0  0  0  0  0
   -0.3165   -0.8175    0.0000 C   0  0  0  0  0  0  0  0  0  0  0  0
    0.5485   -1.3193    0.0000 C   0  0  0  0  0  0  0  0  0  0  0  0
    0.5465   -2.3193    0.0000 R   0  0  0  0  0  0  0  0  0  0  0  0
    1.4155   -0.8209    0.0000 O   0  0  0  0  0  0  0  0  0  0  0  0
    0.5525    0.6807    0.0000 C   0  0  0  0  0  0  0  0  0  0  0  0
    1.4175    0.1789    0.0000 R   0  0  0  0  0  0  0  0  0  0  0  0
    0.5545    1.6807    0.0000 O   0  0  0  0  0  0  0  0  0  0  0  0
  1  2  1  0
  2  3  1  0
  2  4  1  0
  4  5  1  6
  5  6  1  0
  6  7  1  0
  6  8  2  0
  4  9  1  0
  9 10  1  0
  9 11  2  0
M  ISO  4   1   1   3   3   7   4  10   2
V    1 *
V    3 *
V    7 *
V   10 *
M  END
>  <symbol>  (15) 
D

>  <m_Rgroups>  (15) 
[H],[OH],[H],[OH],None,None

>  <m_abbr>  (15) 
D

>  <m_name>  (15) 
L-Aspartate

>  <m_type>  (15) 
aa

>  <m_subtype>  (15) 
natural

>  <m_chem_types>  (15) 
1:backbone_n,2:backbone_c,3:backbone_n_mod,4:carboxyl

$$$$

     RDKit          2D

 12 11  0  0  0  0  0  0  0  0999 V2000
   -1.1505   -2.0855    0.0000 R   0  0  0  0  0  0  0  0  0  0  0  0
   -1.1525   -1.0857    0.0000 N   0  0  0  0  0  0  0  0  0  0  0  0
   -2.0195   -0.5873    0.0000 R   0  0  0  0  0  0  0  0  0  0  0  0
   -0.2875   -0.5839    0.0000 C   0  0  0  0  0  0  0  0  0  0  0  0
   -0.2895    0.4161    0.0000 C   0  0  0  0  0  0  0  0  0  0  0  0
    0.5755    0.9177    0.0000 C   0  0  0  0  0  0  0  0  0  0  0  0
    0.5735    1.9177    0.0000 C   0  0  0  0  0  0  0  0  0  0  0  0
    1.4385    2.4195    0.0000 R   0  0  0  0  0  0  0  0  0  0  0  0
   -0.2935    2.4161    0.0000 O   0  0  0  0  0  0  0  0  0  0  0  0
    0.5795   -1.0821    0.0000 C   0  0  0  0  0  0  0  0  0  0  0  0
    1.4445   -0.5805    0.0000 R   0  0  0  0  0  0  0  0  0  0  0  0
    0.5815   -2.0821    0.0000 O   0  0  0  0  0  0  0  0  0  0  0  0
  1  2  1  0
  2  3  1  0
  2  4  1  0
  4  5  1  1
  5  6  1  0
  6  7  1  0
  7  8  1  0
  7  9  2  0
  4 10  1  0
 10 11  1  0
 10 12  2  0
M  ISO  4   1   1   3   3   8   4  11   2
V    1 *
V    3 *
V    8 *
V   11 *
M  END
>  <symbol>  (16) 
E

>  <m_Rgroups>  (16) 
[H],[OH],[H],[OH],None,None

>  <m_abbr>  (16) 
E

>  <m_name>  (16) 
L-Glutamate

>  <m_type>  (16) 
aa

>  <m_subtype>  (16) 
natural

>  <m_chem_types>  (16) 
1:backbone_n,2:backbone_c,3:backbone_n_mod,4:carboxyl

$$$$

     RDKit          2D

 13 12  0  0  0  0  0  0  0  0999 V2000
   -1.2615    2.1178    0.0000 R   0  0  0  0  0  0  0  0  0  0  0  0
   -1.2635    1.1178    0.0000 N   0  0  0  0  0  0  0  0  0  0  0  0
   -2.1305    0.6196    0.0000 R   0  0  0  0  0  0  0  0  0  0  0  0
   -0.3985    0.6162    0.0000 C   0  0  0  0  0  0  0  0  0  0  0  0
   -0.4005   -0.3838    0.0000 C   0  0  0  0  0  0  0  0  0  0  0  0
    0.4645   -0.8856    0.0000 C   0  0  0  0  0  0  0  0  0  0  0  0
    1.3315   -0.3872    0.0000 O   0  0  0  0  0  0  0  0  0  0  0  0
    0.4625   -1.8856    0.0000 N   0  0  0  0  0  0  0  0  0  0  0  0
    1.3275   -2.3872    0.0000 R   0  0  0  0  0  0  0  0  0  0  0  0
   -0.4045   -2.3838    0.0000 R   0  0  0  0  0  0  0  0  0  0  0  0
    0.4687    1.1144    0.0000 C   0  0  0  0  0  0  0  0  0  0  0  0
    1.3337    0.6126    0.0000 R   0  0  0  0  0  0  0  0  0  0  0  0
    0.4707    2.1144    0.0000 O   0  0  0  0  0  0  0  0  0  0  0  0
  1  2  1  0
  2  3  1  0
  2  4  1  0
  4  5  1  6
  5  6  1  0
  6  7  2  0
  6  8  1  0
  8  9  1  0
  8 10  1  0
  4 11  1  0
 11 12  1  0
 11 13  2  0
M  ISO  5   1   1   3   3   9   4  10   5  12   2
V    1 *
V    3 *
V    9 *
V   10 *
V   12 *
M  END
>  <symbol>  (17) 
N

>  <m_Rgroups>  (17) 
[H],[OH],[H],[H],[H],None

>  <m_abbr>  (17) 
N

>  <m_name>  (17) 
L-Asparagine

>  <m_type>  (17) 
aa

>  <m_subtype>  (17) 
natural

>  <m_chem_types>  (17) 
1:backbone_n,2:backbone_c,3:backbone_n_mod,4:amine_primary,5:amine_secondary

$$$$

     RDKit          2D

 14 13  0  0  0  0  0  0  0  0999 V2000
   -1.4178   -2.4670    0.0000 R   0  0  0  0  0  0  0  0  0  0  0  0
   -1.4198   -1.4672    0.0000 N   0  0  0  0  0  0  0  0  0  0  0  0
   -2.2868   -0.9688    0.0000 R   0  0  0  0  0  0  0  0  0  0  0  0
   -0.5548   -0.9654    0.0000 C   0  0  0  0  0  0  0  0  0  0  0  0
   -0.5568    0.0346    0.0000 C   0  0  0  0  0  0  0  0  0  0  0  0
    0.3082    0.5362    0.0000 C   0  0  0  0  0  0  0  0  0  0  0  0
    0.3062    1.5362    0.0000 C   0  0  0  0  0  0  0  0  0  0  0  0
   -0.5608    2.0346    0.0000 O   0  0  0  0  0  0  0  0  0  0  0  0
    1.1712    2.0380    0.0000 N   0  0  0  0  0  0  0  0  0  0  0  0
    1.1692    3.0380    0.0000 R   0  0  0  0  0  0  0  0  0  0  0  0
    2.0382    1.5398    0.0000 R   0  0  0  0  0  0  0  0  0  0  0  0
    0.3122   -1.4636    0.0000 C   0  0  0  0  0  0  0  0  0  0  0  0
    1.1772   -0.9620    0.0000 R   0  0  0  0  0  0  0  0  0  0  0  0
    0.3142   -2.4636    0.0000 O   0  0  0  0  0  0  0  0  0  0  0  0
  1  2  1  0
  2  3  1  0
  2  4  1  0
  4  5  1  1
  5  6  1  0
  6  7  1  0
  7  8  2  0
  7  9  1  0
  9 10  1  0
  9 11  1  0
  4 12  1  0
 12 13  1  0
 12 14  2  0
M  ISO  5   1   1   3   3  10   4  11   5  13   2
V    1 *
V    3 *
V   10 *
V   11 *
V   13 *
M  END
>  <symbol>  (18) 
Q

>  <m_Rgroups>  (18) 
[H],[OH],[H],[H],[H],None

>  <m_abbr>  (18) 
Q

>  <m_name>  (18) 
L-Glutamine

>  <m_type>  (18) 
aa

>  <m_subtype>  (18) 
natural

>  <m_chem_types>  (18) 
1:backbone_n,2:backbone_c,3:backbone_n_mod,4:amine_primary,5:amine_secondary

$$$$

     RDKit          2D

 14 13  0  0  0  0  0  0  0  0999 V2000
   -1.4790    2.7172    0.0000 R   0  0  0  0  0  0  0  0  0  0  0  0
   -1.4812    1.7172    0.0000 N   0  0  0  0  0  0  0  0  0  0  0  0
   -2.3482    1.2190    0.0000 R   0  0  0  0  0  0  0  0  0  0  0  0
   -0.6162    1.2156    0.0000 C   0  0  0  0  0  0  0  0  0  0  0  0
   -0.6182    0.2156    0.0000 C   0  0  0  0  0  0  0  0  0  0  0  0
    0.2468   -0.2862    0.0000 C   0  0  0  0  0  0  0  0  0  0  0  0
    0.2448   -1.2862    0.0000 C   0  0  0  0  0  0  0  0  0  0  0  0
    1.1098   -1.7878    0.0000 C   0  0  0  0  0  0  0  0  0  0  0  0
    1.1078   -2.7878    0.0000 N   0  0  0  0  0  0  0  0  0  0  0  0
    1.9728   -3.2896    0.0000 R   0  0  0  0  0  0  0  0  0  0  0  0
    0.2408   -3.2860    0.0000 R   0  0  0  0  0  0  0  0  0  0  0  0
    0.2510    1.7138    0.0000 C   0  0  0  0  0  0  0  0  0  0  0  0
    1.1160    1.2120    0.0000 R   0  0  0  0  0  0  0  0  0  0  0  0
    0.2530    2.7138    0.0000 O   0  0  0  0  0  0  0  0  0  0  0  0
  1  2  1  0
  2  3  1  0
  2  4  1  0
  4  5  1  6
  5  6  1  0
  6  7  1  0
  7  8  1  0
  8  9  1  0
  9 10  1  0
  9 11  1  0
  4 12  1  0
 12 13  1  0
 12 14  2  0
M  ISO  5   1   1   3   3  10   4  11   5  13   2
V    1 *
V    3 *
V   10 *
V   11 *
V   13 *
M  END
>  <symbol>  (19) 
K

>  <m_Rgroups>  (19) 
[H],[OH],[H],[H],[H],None

>  <m_abbr>  (19) 
K

>  <m_name>  (19) 
L-Lysine

>  <m_type>  (19) 
aa

>  <m_subtype>  (19) 
natural

>  <m_chem_types>  (19) 
1:backbone_n,2:backbone_c,3:backbone_n_mod,4:amine_primary,5:amine_secondary

$$$$

     RDKit          2D

  8  7  0  0  0  0  0  0  0  0999 V2000
   -1.7322   -0.3736    0.0000 R   0  0  0  0  0  0  0  0  0  0  0  0
   -0.8660    0.1256    0.0000 N   0  0  0  0  0  0  0  0  0  0  0  0
   -0.8652    1.1256    0.0000 R   0  0  0  0  0  0  0  0  0  0  0  0
   -0.0002   -0.3750    0.0000 C   0  0  0  0  0  0  0  0  0  0  0  0
   -0.0010   -1.3750    0.0000 C   0  0  0  0  0  0  0  0  0  0  0  0
    0.8660    0.1244    0.0000 C   0  0  0  0  0  0  0  0  0  0  0  0
    1.7318   -0.3764    0.0000 R   0  0  0  0  0  0  0  0  0  0  0  0
    0.8668    1.1244    0.0000 O   0  0  0  0  0  0  0  0  0  0  0  0
  1  2  1  0
  2  3  1  0
  2  4  1  0
  4  5  1  1
  4  6  1  0
  6  7  1  0
  6  8  2  0
M  ISO  3   1   1   3   3   7   2
V    1 *
V    3 *
V    7 *
M  END
>  <symbol>  (20) 
DAla

>  <m_Rgroups>  (20) 
[H],[OH],[H],None,None,None

>  <m_abbr>  (20) 
DAla

>  <m_name>  (20) 
D-Alanine

>  <m_type>  (20) 
aa

>  <m_subtype>  (20) 
natural

>  <m_chem_types>  (20) 
1:backbone_n,2:backbone_c,3:backbone_n_mod

$$$$

     RDKit          2D

 10  9  0  0  0  0  0  0  0  0999 V2000
   -0.8630    1.5016    0.0000 R   0  0  0  0  0  0  0  0  0  0  0  0
   -0.8650    0.5018    0.0000 N   0  0  0  0  0  0  0  0  0  0  0  0
   -1.7320    0.0034    0.0000 R   0  0  0  0  0  0  0  0  0  0  0  0
   -0.0000   -0.0000    0.0000 C   0  0  0  0  0  0  0  0  0  0  0  0
    0.8670    0.4982    0.0000 C   0  0  0  0  0  0  0  0  0  0  0  0
    1.7320   -0.0034    0.0000 R   0  0  0  0  0  0  0  0  0  0  0  0
    0.8690    1.4982    0.0000 O   0  0  0  0  0  0  0  0  0  0  0  0
   -0.0020   -1.0000    0.0000 C   0  0  0  0  0  0  0  0  0  0  0  0
    0.8630   -1.5016    0.0000 C   0  0  0  0  0  0  0  0  0  0  0  0
   -0.8690   -1.4982    0.0000 C   0  0  0  0  0  0  0  0  0  0  0  0
  1  2  1  0
  2  3  1  0
  2  4  1  0
  4  5  1  0
  5  6  1  0
  5  7  2  0
  4  8  1  1
  8  9  1  0
  8 10  1  0
M  ISO  3   1   1   3   3   6   2
V    1 *
V    3 *
V    6 *
M  END
>  <symbol>  (21) 
DVal

>  <m_Rgroups>  (21) 
[H],[OH],[H],None,None,None

>  <m_abbr>  (21) 
DVal

>  <m_name>  (21) 
D-Valine

>  <m_type>  (21) 
aa

>  <m_subtype>  (21) 
natural

>  <m_chem_types>  (21) 
1:backbone_n,2:backbone_c,3:backbone_n_mod

$$$$

     RDKit          2D

 11 10  0  0  0  0  0  0  0  0999 V2000
   -1.1775    1.6841    0.0000 R   0  0  0  0  0  0  0  0  0  0  0  0
   -1.1795    0.6841    0.0000 N   0  0  0  0  0  0  0  0  0  0  0  0
   -2.0465    0.1859    0.0000 R   0  0  0  0  0  0  0  0  0  0  0  0
   -0.3145    0.1825    0.0000 C   0  0  0  0  0  0  0  0  0  0  0  0
   -0.3165   -0.8175    0.0000 C   0  0  0  0  0  0  0  0  0  0  0  0
    0.5485   -1.3193    0.0000 C   0  0  0  0  0  0  0  0  0  0  0  0
    0.5465   -2.3193    0.0000 C   0  0  0  0  0  0  0  0  0  0  0  0
    1.4155   -0.8209    0.0000 C   0  0  0  0  0  0  0  0  0  0  0  0
    0.5525    0.6807    0.0000 C   0  0  0  0  0  0  0  0  0  0  0  0
    1.4175    0.1789    0.0000 R   0  0  0  0  0  0  0  0  0  0  0  0
    0.5545    1.6807    0.0000 O   0  0  0  0  0  0  0  0  0  0  0  0
  1  2  1  0
  2  3  1  0
  2  4  1  0
  4  5  1  1
  5  6  1  0
  6  7  1  0
  6  8  1  0
  4  9  1  0
  9 10  1  0
  9 11  2  0
M  ISO  3   1   1   3   3  10   2
V    1 *
V    3 *
V   10 *
M  END
>  <symbol>  (22) 
DLeu

>  <m_Rgroups>  (22) 
[H],[OH],[H],None,None,None

>  <m_abbr>  (22) 
DLeu

>  <m_name>  (22) 
D-Leucine

>  <m_type>  (22) 
aa

>  <m_subtype>  (22) 
natural

>  <m_chem_types>  (22) 
1:backbone_n,2:backbone_c,3:backbone_n_mod

$$$$

     RDKit          2D

 11 10  0  0  0  0  0  0  0  0999 V2000
   -0.9413    1.7290    0.0000 R   0  0  0  0  0  0  0  0  0  0  0  0
   -0.9433    0.7292    0.0000 N   0  0  0  0  0  0  0  0  0  0  0  0
   -1.8103    0.2308    0.0000 R   0  0  0  0  0  0  0  0  0  0  0  0
   -0.0783    0.2274    0.0000 C   0  0  0  0  0  0  0  0  0  0  0  0
    0.7887    0.7256    0.0000 C   0  0  0  0  0  0  0  0  0  0  0  0
    1.6537    0.2240    0.0000 R   0  0  0  0  0  0  0  0  0  0  0  0
    0.7907    1.7256    0.0000 O   0  0  0  0  0  0  0  0  0  0  0  0
   -0.0803   -0.7726    0.0000 C   0  0  0  0  0  0  0  0  0  0  0  0
   -0.9473   -1.2708    0.0000 C   0  0  0  0  0  0  0  0  0  0  0  0
    0.7847   -1.2742    0.0000 C   0  0  0  0  0  0  0  0  0  0  0  0
    0.7827   -2.2742    0.0000 C   0  0  0  0  0  0  0  0  0  0  0  0
  1  2  1  0
  2  3  1  0
  4  2  1  1
  4  5  1  0
  5  6  1  0
  5  7  2  0
  4  8  1  0
  8  9  1  1
  8 10  1  0
 10 11  1  0
M  ISO  3   1   1   3   3   6   2
V    1 *
V    3 *
V    6 *
M  END
>  <symbol>  (23) 
DIle

>  <m_Rgroups>  (23) 
[H],[OH],[H],None,None,None

>  <m_abbr>  (23) 
DIle

>  <m_name>  (23) 
D-Isoleucine

>  <m_type>  (23) 
aa

>  <m_subtype>  (23) 
natural

>  <m_chem_types>  (23) 
1:backbone_n,2:backbone_c,3:backbone_n_mod

$$$$

     RDKit          2D

 14 14  0  0  0  0  0  0  0  0999 V2000
   -0.1314   -2.1423    0.0000 R   0  0  0  0  0  0  0  0  0  0  0  0
   -0.1278   -1.1425    0.0000 N   0  0  0  0  0  0  0  0  0  0  0  0
   -0.9920   -0.6393    0.0000 R   0  0  0  0  0  0  0  0  0  0  0  0
    0.7400   -0.6455    0.0000 C   0  0  0  0  0  0  0  0  0  0  0  0
    0.7436    0.3545    0.0000 C   0  0  0  0  0  0  0  0  0  0  0  0
   -0.1206    0.8575    0.0000 C   0  0  0  0  0  0  0  0  0  0  0  0
   -0.9884    0.3605    0.0000 C   0  0  0  0  0  0  0  0  0  0  0  0
   -1.8526    0.8637    0.0000 C   0  0  0  0  0  0  0  0  0  0  0  0
   -1.8492    1.8637    0.0000 C   0  0  0  0  0  0  0  0  0  0  0  0
   -0.9812    2.3607    0.0000 C   0  0  0  0  0  0  0  0  0  0  0  0
   -0.1172    1.8575    0.0000 C   0  0  0  0  0  0  0  0  0  0  0  0
    1.6042   -1.1487    0.0000 C   0  0  0  0  0  0  0  0  0  0  0  0
    1.6006   -2.1487    0.0000 R   0  0  0  0  0  0  0  0  0  0  0  0
    2.4720   -0.6517    0.0000 O   0  0  0  0  0  0  0  0  0  0  0  0
  1  2  1  0
  2  3  1  0
  2  4  1  0
  4  5  1  6
  5  6  1  0
  6  7  2  0
  7  8  1  0
  8  9  2  0
  9 10  1  0
 10 11  2  0
  4 12  1  0
 12 13  1  0
 12 14  2  0
 11  6  1  0
M  ISO  3   1   1   3   3  13   2
V    1 *
V    3 *
V   13 *
M  END
>  <symbol>  (24) 
DPhe

>  <m_Rgroups>  (24) 
[H],[OH],[H],None,None,None

>  <m_abbr>  (24) 
DPhe

>  <m_name>  (24) 
D-Phenylalanine

>  <m_type>  (24) 
aa

>  <m_subtype>  (24) 
natural

>  <m_chem_types>  (24) 
1:backbone_n,2:backbone_c,3:backbone_n_mod

$$$$

     RDKit          2D

 18 19  0  0  0  0  0  0  0  0999 V2000
   -1.7608   -2.8281    0.0000 R   0  0  0  0  0  0  0  0  0  0  0  0
   -1.7628   -1.8279    0.0000 N   0  0  0  0  0  0  0  0  0  0  0  0
   -2.6300   -1.3297    0.0000 R   0  0  0  0  0  0  0  0  0  0  0  0
   -0.8980   -1.3261    0.0000 C   0  0  0  0  0  0  0  0  0  0  0  0
   -0.9000   -0.3261    0.0000 C   0  0  0  0  0  0  0  0  0  0  0  0
   -0.0352    0.1757    0.0000 C   0  0  0  0  0  0  0  0  0  0  0  0
    0.8792   -0.2289    0.0000 C   0  0  0  0  0  0  0  0  0  0  0  0
    1.5468    0.5155    0.0000 N   0  0  0  0  0  0  0  0  0  0  0  0
    2.5414    0.4133    0.0000 R   0  0  0  0  0  0  0  0  0  0  0  0
    1.0448    1.3805    0.0000 C   0  0  0  0  0  0  0  0  0  0  0  0
    1.3518    2.3321    0.0000 C   0  0  0  0  0  0  0  0  0  0  0  0
    0.6812    3.0739    0.0000 C   0  0  0  0  0  0  0  0  0  0  0  0
   -0.2966    2.8639    0.0000 C   0  0  0  0  0  0  0  0  0  0  0  0
   -0.6034    1.9121    0.0000 C   0  0  0  0  0  0  0  0  0  0  0  0
    0.0672    1.1705    0.0000 C   0  0  0  0  0  0  0  0  0  0  0  0
   -0.0310   -1.8243    0.0000 C   0  0  0  0  0  0  0  0  0  0  0  0
   -0.0290   -2.8243    0.0000 R   0  0  0  0  0  0  0  0  0  0  0  0
    0.8340   -1.3227    0.0000 O   0  0  0  0  0  0  0  0  0  0  0  0
  1  2  1  0
  2  3  1  0
  2  4  1  0
  4  5  1  6
  5  6  1  0
  6  7  2  0
  7  8  1  0
  8  9  1  0
  8 10  1  0
 10 11  2  0
 11 12  1  0
 12 13  2  0
 13 14  1  0
 14 15  2  0
  4 16  1  0
 16 17  1  0
 16 18  2  0
 15  6  1  0
 15 10  1  0
M  ISO  4   1   1   3   3   9   4  17   2
V    1 *
V    3 *
V    9 *
V   17 *
M  END
>  <symbol>  (25) 
DTrp

>  <m_Rgroups>  (25) 
[H],[OH],[H],[H],None,None

>  <m_abbr>  (25) 
DTrp

>  <m_name>  (25) 
D-Tryptophan

>  <m_type>  (25) 
aa

>  <m_subtype>  (25) 
natural

>  <m_chem_types>  (25) 
1:backbone_n,2:backbone_c,3:backbone_n_mod,4:aromatic_nh

$$$$

     RDKit          2D

 10  9  0  0  0  0  0  0  0  0999 V2000
   -1.0360    1.6020    0.0000 R   0  0  0  0  0  0  0  0  0  0  0  0
   -1.0380    0.6020    0.0000 N   0  0  0  0  0  0  0  0  0  0  0  0
   -1.9050    0.1038    0.0000 R   0  0  0  0  0  0  0  0  0  0  0  0
   -0.1730    0.1004    0.0000 C   0  0  0  0  0  0  0  0  0  0  0  0
   -0.1750   -0.8996    0.0000 C   0  0  0  0  0  0  0  0  0  0  0  0
    0.6900   -1.4014    0.0000 O   0  0  0  0  0  0  0  0  0  0  0  0
    0.6880   -2.4014    0.0000 R   0  0  0  0  0  0  0  0  0  0  0  0
    0.6940    0.5986    0.0000 C   0  0  0  0  0  0  0  0  0  0  0  0
    1.5590    0.0968    0.0000 R   0  0  0  0  0  0  0  0  0  0  0  0
    0.6960    1.5986    0.0000 O   0  0  0  0  0  0  0  0  0  0  0  0
  1  2  1  0
  2  3  1  0
  2  4  1  0
  4  5  1  1
  5  6  1  0
  6  7  1  0
  4  8  1  0
  8  9  1  0
  8 10  2  0
M  ISO  4   1   1   3   3   7   4   9   2
V    1 *
V    3 *
V    7 *
V    9 *
M  END
>  <symbol>  (26) 
DSer

>  <m_Rgroups>  (26) 
[H],[OH],[H],[H],None,None

>  <m_abbr>  (26) 
DSer

>  <m_name>  (26) 
D-Serine

>  <m_type>  (26) 
aa

>  <m_subtype>  (26) 
natural

>  <m_chem_types>  (26) 
1:backbone_n,2:backbone_c,3:backbone_n_mod,4:hydroxyl

$$$$

     RDKit          2D

 11 10  0  0  0  0  0  0  0  0999 V2000
   -0.9413    1.7290    0.0000 R   0  0  0  0  0  0  0  0  0  0  0  0
   -0.9433    0.7292    0.0000 N   0  0  0  0  0  0  0  0  0  0  0  0
   -1.8103    0.2308    0.0000 R   0  0  0  0  0  0  0  0  0  0  0  0
   -0.0783    0.2274    0.0000 C   0  0  0  0  0  0  0  0  0  0  0  0
    0.7887    0.7256    0.0000 C   0  0  0  0  0  0  0  0  0  0  0  0
    1.6537    0.2240    0.0000 R   0  0  0  0  0  0  0  0  0  0  0  0
    0.7907    1.7256    0.0000 O   0  0  0  0  0  0  0  0  0  0  0  0
   -0.0803   -0.7726    0.0000 C   0  0  0  0  0  0  0  0  0  0  0  0
   -0.9473   -1.2708    0.0000 C   0  0  0  0  0  0  0  0  0  0  0  0
    0.7847   -1.2742    0.0000 O   0  0  0  0  0  0  0  0  0  0  0  0
    0.7827   -2.2742    0.0000 R   0  0  0  0  0  0  0  0  0  0  0  0
  1  2  1  0
  2  3  1  0
  4  2  1  1
  4  5  1  0
  5  6  1  0
  5  7  2  0
  4  8  1  0
  8  9  1  6
  8 10  1  0
 10 11  1  0
M  ISO  4   1   1   3   3   6   2  11   4
V    1 *
V    3 *
V    6 *
V   11 *
M  END
>  <symbol>  (27) 
DThr

>  <m_Rgroups>  (27) 
[H],[OH],[H],[H],None,None

>  <m_abbr>  (27) 
DThr

>  <m_name>  (27) 
D-Threonine

>  <m_type>  (27) 
aa

>  <m_subtype>  (27) 
natural

>  <m_chem_types>  (27) 
1:backbone_n,2:backbone_c,3:backbone_n_mod,4:hydroxyl

$$$$

     RDKit          2D

 10  9  0  0  0  0  0  0  0  0999 V2000
   -1.0360    1.6020    0.0000 R   0  0  0  0  0  0  0  0  0  0  0  0
   -1.0380    0.6020    0.0000 N   0  0  0  0  0  0  0  0  0  0  0  0
   -1.9050    0.1038    0.0000 R   0  0  0  0  0  0  0  0  0  0  0  0
   -0.1730    0.1004    0.0000 C   0  0  0  0  0  0  0  0  0  0  0  0
   -0.1750   -0.8996    0.0000 C   0  0  0  0  0  0  0  0  0  0  0  0
    0.6900   -1.4014    0.0000 S   0  0  0  0  0  0  0  0  0  0  0  0
    0.6880   -2.4014    0.0000 R   0  0  0  0  0  0  0  0  0  0  0  0
    0.6940    0.5986    0.0000 C   0  0  0  0  0  0  0  0  0  0  0  0
    1.5590    0.0968    0.0000 R   0  0  0  0  0  0  0  0  0  0  0  0
    0.6960    1.5986    0.0000 O   0  0  0  0  0  0  0  0  0  0  0  0
  1  2  1  0
  2  3  1  0
  2  4  1  0
  4  5  1  1
  5  6  1  0
  6  7  1  0
  4  8  1  0
  8  9  1  0
  8 10  2  0
M  ISO  4   1   1   3   3   7   4   9   2
V    1 *
V    3 *
V    7 *
V    9 *
M  END
>  <symbol>  (28) 
DCys

>  <m_Rgroups>  (28) 
[H],[OH],[H],[H],None,None

>  <m_abbr>  (28) 
DCys

>  <m_name>  (28) 
D-Cysteine

>  <m_type>  (28) 
aa

>  <m_subtype>  (28) 
natural

>  <m_chem_types>  (28) 
1:backbone_n,2:backbone_c,3:backbone_n_mod,4:thiol

$$$$

     RDKit          2D

 16 16  0  0  0  0  0  0  0  0999 V2000
    0.2075   -2.5007    0.0000 R   0  0  0  0  0  0  0  0  0  0  0  0
    0.2111   -1.5007    0.0000 N   0  0  0  0  0  0  0  0  0  0  0  0
   -0.6531   -0.9977    0.0000 R   0  0  0  0  0  0  0  0  0  0  0  0
    1.0789   -1.0039    0.0000 C   0  0  0  0  0  0  0  0  0  0  0  0
    1.0825   -0.0039    0.0000 C   0  0  0  0  0  0  0  0  0  0  0  0
    0.2183    0.4991    0.0000 C   0  0  0  0  0  0  0  0  0  0  0  0
   -0.6495    0.0023    0.0000 C   0  0  0  0  0  0  0  0  0  0  0  0
   -1.5137    0.5055    0.0000 C   0  0  0  0  0  0  0  0  0  0  0  0
   -1.5101    1.5053    0.0000 C   0  0  0  0  0  0  0  0  0  0  0  0
   -2.3743    2.0085    0.0000 O   0  0  0  0  0  0  0  0  0  0  0  0
   -2.3707    3.0085    0.0000 R   0  0  0  0  0  0  0  0  0  0  0  0
   -0.6423    2.0023    0.0000 C   0  0  0  0  0  0  0  0  0  0  0  0
    0.2219    1.4991    0.0000 C   0  0  0  0  0  0  0  0  0  0  0  0
    1.9431   -1.5069    0.0000 C   0  0  0  0  0  0  0  0  0  0  0  0
    1.9395   -2.5069    0.0000 R   0  0  0  0  0  0  0  0  0  0  0  0
    2.8109   -1.0101    0.0000 O   0  0  0  0  0  0  0  0  0  0  0  0
  1  2  1  0
  2  3  1  0
  2  4  1  0
  4  5  1  6
  5  6  1  0
  6  7  1  0
  7  8  2  0
  8  9  1  0
  9 10  1  0
 10 11  1  0
  9 12  2  0
 12 13  1  0
  4 14  1  0
 14 15  1  0
 14 16  2  0
 13  6  2  0
M  ISO  4   1   1   3   3  11   4  15   2
V    1 *
V    3 *
V   11 *
V   15 *
M  END
>  <symbol>  (29) 
DTyr

>  <m_Rgroups>  (29) 
[H],[OH],[H],[H],None,None

>  <m_abbr>  (29) 
DTyr

>  <m_name>  (29) 
D-Tyrosine

>  <m_type>  (29) 
aa

>  <m_subtype>  (29) 
natural

>  <m_chem_types>  (29) 
1:backbone_n,2:backbone_c,3:backbone_n_mod,4:hydroxyl_phenolic

$$$$

     RDKit          2D

 14 14  0  0  0  0  0  0  0  0999 V2000
   -0.2862   -2.1979    0.0000 R   0  0  0  0  0  0  0  0  0  0  0  0
   -0.2822   -1.1981    0.0000 N   0  0  0  0  0  0  0  0  0  0  0  0
   -1.1462   -0.6947    0.0000 R   0  0  0  0  0  0  0  0  0  0  0  0
    0.5858   -0.7015    0.0000 C   0  0  0  0  0  0  0  0  0  0  0  0
    0.5898    0.2983    0.0000 C   0  0  0  0  0  0  0  0  0  0  0  0
   -0.2740    0.8017    0.0000 C   0  0  0  0  0  0  0  0  0  0  0  0
   -1.1894    0.3985    0.0000 C   0  0  0  0  0  0  0  0  0  0  0  0
   -1.8552    1.1443    0.0000 N   0  0  0  0  0  0  0  0  0  0  0  0
   -1.3522    2.0085    0.0000 C   0  0  0  0  0  0  0  0  0  0  0  0
   -0.3748    1.7965    0.0000 N   0  0  0  0  0  0  0  0  0  0  0  0
    0.3710    2.4629    0.0000 R   0  0  0  0  0  0  0  0  0  0  0  0
    1.4500   -1.2049    0.0000 C   0  0  0  0  0  0  0  0  0  0  0  0
    1.4460   -2.2049    0.0000 R   0  0  0  0  0  0  0  0  0  0  0  0
    2.3180   -0.7085    0.0000 O   0  0  0  0  0  0  0  0  0  0  0  0
  1  2  1  0
  2  3  1  0
  2  4  1  0
  4  5  1  6
  5  6  1  0
  6  7  2  0
  7  8  1  0
  8  9  2  0
  9 10  1  0
 10 11  1  0
  4 12  1  0
 12 13  1  0
 12 14  2  0
 10  6  1  0
M  ISO  4   1   1   3   3  11   4  13   2
V    1 *
V    3 *
V   11 *
V   13 *
M  END
>  <symbol>  (30) 
DHis

>  <m_Rgroups>  (30) 
[H],[OH],[H],[H],None,None

>  <m_abbr>  (30) 
DHis

>  <m_name>  (30) 
D-Histidine

>  <m_type>  (30) 
aa

>  <m_subtype>  (30) 
natural

>  <m_chem_types>  (30) 
1:backbone_n,2:backbone_c,3:backbone_n_mod,4:aromatic_nh

$$$$

     RDKit          2D

 11 10  0  0  0  0  0  0  0  0999 V2000
   -1.1775    1.6841    0.0000 R   0  0  0  0  0  0  0  0  0  0  0  0
   -1.1795    0.6841    0.0000 N   0  0  0  0  0  0  0  0  0  0  0  0
   -2.0465    0.1859    0.0000 R   0  0  0  0  0  0  0  0  0  0  0  0
   -0.3145    0.1825    0.0000 C   0  0  0  0  0  0  0  0  0  0  0  0
   -0.3165   -0.8175    0.0000 C   0  0  0  0  0  0  0  0  0  0  0  0
    0.5485   -1.3193    0.0000 C   0  0  0  0  0  0  0  0  0  0  0  0
    0.5465   -2.3193    0.0000 R   0  0  0  0  0  0  0  0  0  0  0  0
    1.4155   -0.8209    0.0000 O   0  0  0  0  0  0  0  0  0  0  0  0
    0.5525    0.6807    0.0000 C   0  0  0  0  0  0  0  0  0  0  0  0
    1.4175    0.1789    0.0000 R   0  0  0  0  0  0  0  0  0  0  0  0
    0.5545    1.6807    0.0000 O   0  0  0  0  0  0  0  0  0  0  0  0
  1  2  1  0
  2  3  1  0
  2  4  1  0
  4  5  1  1
  5  6  1  0
  6  7  1  0
  6  8  2  0
  4  9  1  0
  9 10  1  0
  9 11  2  0
M  ISO  4   1   1   3   3   7   4  10   2
V    1 *
V    3 *
V    7 *
V   10 *
M  END
>  <symbol>  (31) 
DAsp

>  <m_Rgroups>  (31) 
[H],[OH],[H],[OH],None,None

>  <m_abbr>  (31) 
DAsp

>  <m_name>  (31) 
D-Aspartate

>  <m_type>  (31) 
aa

>  <m_subtype>  (31) 
natural

>  <m_chem_types>  (31) 
1:backbone_n,2:backbone_c,3:backbone_n_mod,4:carboxyl

$$$$

     RDKit          2D

 12 11  0  0  0  0  0  0  0  0999 V2000
   -1.1505   -2.0855    0.0000 R   0  0  0  0  0  0  0  0  0  0  0  0
   -1.1525   -1.0857    0.0000 N   0  0  0  0  0  0  0  0  0  0  0  0
   -2.0195   -0.5873    0.0000 R   0  0  0  0  0  0  0  0  0  0  0  0
   -0.2875   -0.5839    0.0000 C   0  0  0  0  0  0  0  0  0  0  0  0
   -0.2895    0.4161    0.0000 C   0  0  0  0  0  0  0  0  0  0  0  0
    0.5755    0.9177    0.0000 C   0  0  0  0  0  0  0  0  0  0  0  0
    0.5735    1.9177    0.0000 C   0  0  0  0  0  0  0  0  0  0  0  0
    1.4385    2.4195    0.0000 R   0  0  0  0  0  0  0  0  0  0  0  0
   -0.2935    2.4161    0.0000 O   0  0  0  0  0  0  0  0  0  0  0  0
    0.5795   -1.0821    0.0000 C   0  0  0  0  0  0  0  0  0  0  0  0
    1.4445   -0.5805    0.0000 R   0  0  0  0  0  0  0  0  0  0  0  0
    0.5815   -2.0821    0.0000 O   0  0  0  0  0  0  0  0  0  0  0  0
  1  2  1  0
  2  3  1  0
  2  4  1  0
  4  5  1  6
  5  6  1  0
  6  7  1  0
  7  8  1  0
  7  9  2  0
  4 10  1  0
 10 11  1  0
 10 12  2  0
M  ISO  4   1   1   3   3   8   4  11   2
V    1 *
V    3 *
V    8 *
V   11 *
M  END
>  <symbol>  (32) 
DGlu

>  <m_Rgroups>  (32) 
[H],[OH],[H],[OH],None,None

>  <m_abbr>  (32) 
DGlu

>  <m_name>  (32) 
D-Glutamate

>  <m_type>  (32) 
aa

>  <m_subtype>  (32) 
natural

>  <m_chem_types>  (32) 
1:backbone_n,2:backbone_c,3:backbone_n_mod,4:carboxyl

$$$$

     RDKit          2D

 13 12  0  0  0  0  0  0  0  0999 V2000
   -1.2615    2.1178    0.0000 R   0  0  0  0  0  0  0  0  0  0  0  0
   -1.2635    1.1178    0.0000 N   0  0  0  0  0  0  0  0  0  0  0  0
   -2.1305    0.6196    0.0000 R   0  0  0  0  0  0  0  0  0  0  0  0
   -0.3985    0.6162    0.0000 C   0  0  0  0  0  0  0  0  0  0  0  0
   -0.4005   -0.3838    0.0000 C   0  0  0  0  0  0  0  0  0  0  0  0
    0.4645   -0.8856    0.0000 C   0  0  0  0  0  0  0  0  0  0  0  0
    1.3315   -0.3872    0.0000 O   0  0  0  0  0  0  0  0  0  0  0  0
    0.4625   -1.8856    0.0000 N   0  0  0  0  0  0  0  0  0  0  0  0
    1.3275   -2.3872    0.0000 R   0  0  0  0  0  0  0  0  0  0  0  0
   -0.4045   -2.3838    0.0000 R   0  0  0  0  0  0  0  0  0  0  0  0
    0.4687    1.1144    0.0000 C   0  0  0  0  0  0  0  0  0  0  0  0
    1.3337    0.6126    0.0000 R   0  0  0  0  0  0  0  0  0  0  0  0
    0.4707    2.1144    0.0000 O   0  0  0  0  0  0  0  0  0  0  0  0
  1  2  1  0
  2  3  1  0
  2  4  1  0
  4  5  1  1
  5  6  1  0
  6  7  2  0
  6  8  1  0
  8  9  1  0
  8 10  1  0
  4 11  1  0
 11 12  1  0
 11 13  2  0
M  ISO  5   1   1   3   3   9   4  10   5  12   2
V    1 *
V    3 *
V    9 *
V   10 *
V   12 *
M  END
>  <symbol>  (33) 
DAsn

>  <m_Rgroups>  (33) 
[H],[OH],[H],[H],[H],None

>  <m_abbr>  (33) 
DAsn

>  <m_name>  (33) 
D-Asparagine

>  <m_type>  (33) 
aa

>  <m_subtype>  (33) 
natural

>  <m_chem_types>  (33) 
1:backbone_n,2:backbone_c,3:backbone_n_mod,4:amine_primary,5:amine_secondary

$$$$

     RDKit          2D

 14 13  0  0  0  0  0  0  0  0999 V2000
   -1.4178   -2.4670    0.0000 R   0  0  0  0  0  0  0  0  0  0  0  0
   -1.4198   -1.4672    0.0000 N   0  0  0  0  0  0  0  0  0  0  0  0
   -2.2868   -0.9688    0.0000 R   0  0  0  0  0  0  0  0  0  0  0  0
   -0.5548   -0.9654    0.0000 C   0  0  0  0  0  0  0  0  0  0  0  0
   -0.5568    0.0346    0.0000 C   0  0  0  0  0  0  0  0  0  0  0  0
    0.3082    0.5362    0.0000 C   0  0  0  0  0  0  0  0  0  0  0  0
    0.3062    1.5362    0.0000 C   0  0  0  0  0  0  0  0  0  0  0  0
   -0.5608    2.0346    0.0000 O   0  0  0  0  0  0  0  0  0  0  0  0
    1.1712    2.0380    0.0000 N   0  0  0  0  0  0  0  0  0  0  0  0
    1.1692    3.0380    0.0000 R   0  0  0  0  0  0  0  0  0  0  0  0
    2.0382    1.5398    0.0000 R   0  0  0  0  0  0  0  0  0  0  0  0
    0.3122   -1.4636    0.0000 C   0  0  0  0  0  0  0  0  0  0  0  0
    1.1772   -0.9620    0.0000 R   0  0  0  0  0  0  0  0  0  0  0  0
    0.3142   -2.4636    0.0000 O   0  0  0  0  0  0  0  0  0  0  0  0
  1  2  1  0
  2  3  1  0
  2  4  1  0
  4  5  1  6
  5  6  1  0
  6  7  1  0
  7  8  2  0
  7  9  1  0
  9 10  1  0
  9 11  1  0
  4 12  1  0
 12 13  1  0
 12 14  2  0
M  ISO  5   1   1   3   3  10   4  11   5  13   2
V    1 *
V    3 *
V   10 *
V   11 *
V   13 *
M  END
>  <symbol>  (34) 
DGln

>  <m_Rgroups>  (34) 
[H],[OH],[H],[H],[H],None

>  <m_abbr>  (34) 
DGln

>  <m_name>  (34) 
D-Glutamine

>  <m_type>  (34) 
aa

>  <m_subtype>  (34) 
natural

>  <m_chem_types>  (34) 
1:backbone_n,2:backbone_c,3:backbone_n_mod,4:amine_primary,5:amine_secondary

$$$$

     RDKit          2D

 14 13  0  0  0  0  0  0  0  0999 V2000
   -1.4790    2.7172    0.0000 R   0  0  0  0  0  0  0  0  0  0  0  0
   -1.4812    1.7172    0.0000 N   0  0  0  0  0  0  0  0  0  0  0  0
   -2.3482    1.2190    0.0000 R   0  0  0  0  0  0  0  0  0  0  0  0
   -0.6162    1.2156    0.0000 C   0  0  0  0  0  0  0  0  0  0  0  0
   -0.6182    0.2156    0.0000 C   0  0  0  0  0  0  0  0  0  0  0  0
    0.2468   -0.2862    0.0000 C   0  0  0  0  0  0  0  0  0  0  0  0
    0.2448   -1.2862    0.0000 C   0  0  0  0  0  0  0  0  0  0  0  0
    1.1098   -1.7878    0.0000 C   0  0  0  0  0  0  0  0  0  0  0  0
    1.1078   -2.7878    0.0000 N   0  0  0  0  0  0  0  0  0  0  0  0
    1.9728   -3.2896    0.0000 R   0  0  0  0  0  0  0  0  0  0  0  0
    0.2408   -3.2860    0.0000 R   0  0  0  0  0  0  0  0  0  0  0  0
    0.2510    1.7138    0.0000 C   0  0  0  0  0  0  0  0  0  0  0  0
    1.1160    1.2120    0.0000 R   0  0  0  0  0  0  0  0  0  0  0  0
    0.2530    2.7138    0.0000 O   0  0  0  0  0  0  0  0  0  0  0  0
  1  2  1  0
  2  3  1  0
  2  4  1  0
  4  5  1  1
  5  6  1  0
  6  7  1  0
  7  8  1  0
  8  9  1  0
  9 10  1  0
  9 11  1  0
  4 12  1  0
 12 13  1  0
 12 14  2  0
M  ISO  5   1   1   3   3  10   4  11   5  13   2
V    1 *
V    3 *
V   10 *
V   11 *
V   13 *
M  END
>  <symbol>  (35) 
DLys

>  <m_Rgroups>  (35) 
[H],[OH],[H],[H],[H],None

>  <m_abbr>  (35) 
DLys

>  <m_name>  (35) 
D-Lysine

>  <m_type>  (35) 
aa

>  <m_subtype>  (35) 
natural

>  <m_chem_types>  (35) 
1:backbone_n,2:backbone_c,3:backbone_n_mod,4:amine_primary,5:amine_secondary

$$$$

     RDKit          2D

  9  8  0  0  0  0  0  0  0  0999 V2000
   -1.7322   -0.2506    0.0000 R   0  0  0  0  0  0  0  0  0  0  0  0
   -0.8658    0.2486    0.0000 N   0  0  0  0  0  0  0  0  0  0  0  0
   -0.8650    1.2486    0.0000 R   0  0  0  0  0  0  0  0  0  0  0  0
   -0.0002   -0.2520    0.0000 C   0  0  0  0  0  0  0  0  0  0  0  0
   -0.5008   -1.1176    0.0000 C   0  0  0  0  0  0  0  0  0  0  0  0
    0.4992   -1.1184    0.0000 C   0  0  0  0  0  0  0  0  0  0  0  0
    0.8662    0.2474    0.0000 C   0  0  0  0  0  0  0  0  0  0  0  0
    1.7318   -0.2534    0.0000 R   0  0  0  0  0  0  0  0  0  0  0  0
    0.8670    1.2474    0.0000 O   0  0  0  0  0  0  0  0  0  0  0  0
  1  2  1  0
  2  3  1  0
  2  4  1  0
  4  5  1  0
  4  6  1  0
  4  7  1  0
  7  8  1  0
  7  9  2  0
M  ISO  3   1   1   3   3   8   2
V    1 *
V    3 *
V    8 *
M  END
>  <symbol>  (36) 
Aib

>  <m_Rgroups>  (36) 
[H],[OH],[H],None,None,None

>  <m_abbr>  (36) 
Aib

>  <m_name>  (36) 
alpha-Aminoisobutyric acid

>  <m_type>  (36) 
aa

>  <m_subtype>  (36) 
natural

>  <m_chem_types>  (36) 
1:backbone_n,2:backbone_c,3:backbone_n_mod

$$$$

     RDKit          2D

 13 12  0  0  0  0  0  0  0  0999 V2000
   -1.4608    2.3106    0.0000 R   0  0  0  0  0  0  0  0  0  0  0  0
   -1.4630    1.3106    0.0000 N   0  0  0  0  0  0  0  0  0  0  0  0
   -2.3300    0.8124    0.0000 R   0  0  0  0  0  0  0  0  0  0  0  0
   -0.5980    0.8088    0.0000 C   0  0  0  0  0  0  0  0  0  0  0  0
   -0.6000   -0.1910    0.0000 C   0  0  0  0  0  0  0  0  0  0  0  0
    0.2650   -0.6928    0.0000 C   0  0  0  0  0  0  0  0  0  0  0  0
    0.2630   -1.6928    0.0000 C   0  0  0  0  0  0  0  0  0  0  0  0
    1.1280   -2.1944    0.0000 N   0  0  0  0  0  0  0  0  0  0  0  0
    1.1260   -3.1944    0.0000 R   0  0  0  0  0  0  0  0  0  0  0  0
    1.9952   -1.6962    0.0000 R   0  0  0  0  0  0  0  0  0  0  0  0
    0.2692    1.3072    0.0000 C   0  0  0  0  0  0  0  0  0  0  0  0
    1.1342    0.8054    0.0000 R   0  0  0  0  0  0  0  0  0  0  0  0
    0.2712    2.3072    0.0000 O   0  0  0  0  0  0  0  0  0  0  0  0
  1  2  1  0
  2  3  1  0
  2  4  1  0
  4  5  1  6
  5  6  1  0
  6  7  1  0
  7  8  1  0
  8  9  1  0
  8 10  1  0
  4 11  1  0
 11 12  1  0
 11 13  2  0
M  ISO  5   1   1   3   3   9   4  10   5  12   2
V    1 *
V    3 *
V    9 *
V   10 *
V   12 *
M  END
>  <symbol>  (37) 
Orn

>  <m_Rgroups>  (37) 
[H],[OH],[H],[H],[H],None

>  <m_abbr>  (37) 
Orn

>  <m_name>  (37) 
L-Ornithine

>  <m_type>  (37) 
aa

>  <m_subtype>  (37) 
natural

>  <m_chem_types>  (37) 
1:backbone_n,2:backbone_c,3:backbone_n_mod,4:amine_primary,5:amine_secondary

$$$$

     RDKit          2D

 11 11  0  0  0  0  0  0  0  0999 V2000
   -0.5525   -1.6951    0.0000 R   0  0  0  0  0  0  0  0  0  0  0  0
   -0.3949   -0.7077    0.0000 N   0  0  0  0  0  0  0  0  0  0  0  0
   -1.1011    0.0003    0.0000 C   0  0  0  0  0  0  0  0  0  0  0  0
   -0.6459    0.8907    0.0000 C   0  0  0  0  0  0  0  0  0  0  0  0
   -1.0989    1.7823    0.0000 O   0  0  0  0  0  0  0  0  0  0  0  0
   -2.0973    1.8359    0.0000 R   0  0  0  0  0  0  0  0  0  0  0  0
    0.3415    0.7331    0.0000 C   0  0  0  0  0  0  0  0  0  0  0  0
    0.4967   -0.2547    0.0000 C   0  0  0  0  0  0  0  0  0  0  0  0
    1.3871   -0.7099    0.0000 C   0  0  0  0  0  0  0  0  0  0  0  0
    1.4385   -1.7085    0.0000 R   0  0  0  0  0  0  0  0  0  0  0  0
    2.2265   -0.1663    0.0000 O   0  0  0  0  0  0  0  0  0  0  0  0
  1  2  1  0
  2  3  1  0
  3  4  1  0
  4  5  1  6
  5  6  1  0
  4  7  1  0
  7  8  1  0
  8  9  1  1
  9 10  1  0
  9 11  2  0
  8  2  1  0
M  ISO  3   1   1   6   3  10   2
V    1 *
V    6 *
V   10 *
M  END
>  <symbol>  (38) 
Hyp

>  <m_Rgroups>  (38) 
[H],[OH],[H],None,None,None

>  <m_abbr>  (38) 
Hyp

>  <m_name>  (38) 
trans-4-Hydroxyproline

>  <m_type>  (38) 
aa

>  <m_subtype>  (38) 
natural

>  <m_chem_types>  (38) 
1:backbone_n,2:backbone_c,3:hydroxyl

$$$$

     RDKit          2D

 11 10  0  0  0  0  0  0  0  0999 V2000
   -1.1771    1.8660    0.0000 R   0  0  0  0  0  0  0  0  0  0  0  0
   -1.1791    0.8660    0.0000 N   0  0  0  0  0  0  0  0  0  0  0  0
   -2.0463    0.3676    0.0000 R   0  0  0  0  0  0  0  0  0  0  0  0
   -0.3141    0.3642    0.0000 C   0  0  0  0  0  0  0  0  0  0  0  0
   -0.3163   -0.6358    0.0000 C   0  0  0  0  0  0  0  0  0  0  0  0
    0.5487   -1.1374    0.0000 C   0  0  0  0  0  0  0  0  0  0  0  0
    0.5467   -2.1374    0.0000 C   0  0  0  0  0  0  0  0  0  0  0  0
    1.4117   -2.6392    0.0000 C   0  0  0  0  0  0  0  0  0  0  0  0
    0.5529    0.8624    0.0000 C   0  0  0  0  0  0  0  0  0  0  0  0
    1.4179    0.3608    0.0000 R   0  0  0  0  0  0  0  0  0  0  0  0
    0.5549    1.8624    0.0000 O   0  0  0  0  0  0  0  0  0  0  0  0
  1  2  1  0
  2  3  1  0
  2  4  1  0
  4  5  1  6
  5  6  1  0
  6  7  1  0
  7  8  1  0
  4  9  1  0
  9 10  1  0
  9 11  2  0
M  ISO  3   1   1   3   3  10   2
V    1 *
V    3 *
V   10 *
M  END
>  <symbol>  (39) 
Nle

>  <m_Rgroups>  (39) 
[H],[OH],[H],None,None,None

>  <m_abbr>  (39) 
Nle

>  <m_name>  (39) 
L-Norleucine

>  <m_type>  (39) 
aa

>  <m_subtype>  (39) 
natural

>  <m_chem_types>  (39) 
1:backbone_n,2:backbone_c,3:backbone_n_mod

$$$$

     RDKit          2D

 10  9  0  0  0  0  0  0  0  0999 V2000
   -1.0360    1.6020    0.0000 R   0  0  0  0  0  0  0  0  0  0  0  0
   -1.0380    0.6020    0.0000 N   0  0  0  0  0  0  0  0  0  0  0  0
   -1.9050    0.1038    0.0000 R   0  0  0  0  0  0  0  0  0  0  0  0
   -0.1730    0.1004    0.0000 C   0  0  0  0  0  0  0  0  0  0  0  0
   -0.1750   -0.8996    0.0000 C   0  0  0  0  0  0  0  0  0  0  0  0
    0.6900   -1.4014    0.0000 C   0  0  0  0  0  0  0  0  0  0  0  0
    0.6880   -2.4014    0.0000 C   0  0  0  0  0  0  0  0  0  0  0  0
    0.6940    0.5986    0.0000 C   0  0  0  0  0  0  0  0  0  0  0  0
    1.5590    0.0968    0.0000 R   0  0  0  0  0  0  0  0  0  0  0  0
    0.6960    1.5986    0.0000 O   0  0  0  0  0  0  0  0  0  0  0  0
  1  2  1  0
  2  3  1  0
  2  4  1  0
  4  5  1  6
  5  6  1  0
  6  7  1  0
  4  8  1  0
  8  9  1  0
  8 10  2  0
M  ISO  3   1   1   3   3   9   2
V    1 *
V    3 *
V    9 *
M  END
>  <symbol>  (40) 
Nva

>  <m_Rgroups>  (40) 
[H],[OH],[H],None,None,None

>  <m_abbr>  (40) 
Nva

>  <m_name>  (40) 
L-Norvaline

>  <m_type>  (40) 
aa

>  <m_subtype>  (40) 
natural

>  <m_chem_types>  (40) 
1:backbone_n,2:backbone_c,3:backbone_n_mod

$$$$

     RDKit          2D

 10  9  0  0  0  0  0  0  0  0999 V2000
   -1.0360    1.6020    0.0000 R   0  0  0  0  0  0  0  0  0  0  0  0
   -1.0380    0.6020    0.0000 N   0  0  0  0  0  0  0  0  0  0  0  0
   -1.9050    0.1038    0.0000 R   0  0  0  0  0  0  0  0  0  0  0  0
   -0.1730    0.1004    0.0000 C   0  0  0  0  0  0  0  0  0  0  0  0
   -0.1750   -0.8996    0.0000 C   0  0  0  0  0  0  0  0  0  0  0  0
    0.6900   -1.4014    0.0000 Se  0  0  0  0  0  2  0  0  0  0  0  0
    0.6880   -2.4014    0.0000 R   0  0  0  0  0  0  0  0  0  0  0  0
    0.6940    0.5986    0.0000 C   0  0  0  0  0  0  0  0  0  0  0  0
    1.5590    0.0968    0.0000 R   0  0  0  0  0  0  0  0  0  0  0  0
    0.6960    1.5986    0.0000 O   0  0  0  0  0  0  0  0  0  0  0  0
  1  2  1  0
  2  3  1  0
  2  4  1  0
  4  5  1  6
  5  6  1  0
  6  7  1  0
  4  8  1  0
  8  9  1  0
  8 10  2  0
M  ISO  4   1   1   3   3   7   4   9   2
V    1 *
V    3 *
V    7 *
V    9 *
M  END
>  <symbol>  (41) 
Sec

>  <m_Rgroups>  (41) 
[H],[OH],[H],[H],None,None

>  <m_abbr>  (41) 
Sec

>  <m_name>  (41) 
L-Selenocysteine

>  <m_type>  (41) 
aa

>  <m_subtype>  (41) 
natural

>  <m_chem_types>  (41) 
1:backbone_n,2:backbone_c,3:backbone_n_mod,4:selenol

$$$$

     RDKit          2D

  4  3  0  0  0  0  0  0  0  0999 V2000
   -0.8678   -0.4969    0.0000 R   0  0  0  0  0  0  0  0  0  0  0  0
    0.0000   -0.0001    0.0000 C   0  0  0  0  0  0  0  0  0  0  0  0
    0.8642   -0.5030    0.0000 C   0  0  0  0  0  0  0  0  0  0  0  0
    0.0036    0.9999    0.0000 O   0  0  0  0  0  0  0  0  0  0  0  0
  1  2  1  0
  2  3  1  0
  2  4  2  0
M  ISO  1   1   2
V    1 *
M  END
>  <symbol>  (42) 
ac

>  <m_Rgroups>  (42) 
None,[OH],None,None,None,None

>  <m_abbr>  (42) 
ac

>  <m_name>  (42) 
Acetyl cap

>  <m_type>  (42) 
cap

>  <m_subtype>  (42) 
cap

>  <m_chem_types>  (42) 
2:backbone_c

$$$$

     RDKit          2D

  2  1  0  0  0  0  0  0  0  0999 V2000
   -0.5000    0.0000    0.0000 R   0  0  0  0  0  0  0  0  0  0  0  0
    0.5000    0.0000    0.0000 N   0  0  0  0  0  0  0  0  0  0  0  0
  1  2  1  0
M  ISO  1   1   1
V    1 *
M  END
>  <symbol>  (43) 
am

>  <m_Rgroups>  (43) 
[H],None,None,None,None,None

>  <m_abbr>  (43) 
am

>  <m_name>  (43) 
Amide cap

>  <m_type>  (43) 
cap

>  <m_subtype>  (43) 
cap

>  <m_chem_types>  (43) 
1:backbone_n

$$$$

     RDKit          2D

 18 20  0  0  0  0  0  0  0  0999 V2000
   -3.6072    0.3008    0.0000 R   0  0  0  0  0  0  0  0  0  0  0  0
   -2.7418    0.8018    0.0000 C   0  0  0  0  0  0  0  0  0  0  0  0
   -2.7428    1.8016    0.0000 O   0  0  0  0  0  0  0  0  0  0  0  0
   -1.8754    0.3028    0.0000 O   0  0  0  0  0  0  0  0  0  0  0  0
   -1.0100    0.8038    0.0000 C   0  0  0  0  0  0  0  0  0  0  0  0
   -0.1428    0.3044    0.0000 C   0  0  0  0  0  0  0  0  0  0  0  0
    0.7698    0.7128    0.0000 C   0  0  0  0  0  0  0  0  0  0  0  0
    1.0774    1.6630    0.0000 C   0  0  0  0  0  0  0  0  0  0  0  0
    2.0552    1.8734    0.0000 C   0  0  0  0  0  0  0  0  0  0  0  0
    2.7248    1.1298    0.0000 C   0  0  0  0  0  0  0  0  0  0  0  0
    2.4174    0.1796    0.0000 C   0  0  0  0  0  0  0  0  0  0  0  0
    1.4394   -0.0304    0.0000 C   0  0  0  0  0  0  0  0  0  0  0  0
    0.9410   -0.8962    0.0000 C   0  0  0  0  0  0  0  0  0  0  0  0
    1.2508   -1.8472    0.0000 C   0  0  0  0  0  0  0  0  0  0  0  0
    0.5832   -2.5916    0.0000 C   0  0  0  0  0  0  0  0  0  0  0  0
   -0.3950   -2.3842    0.0000 C   0  0  0  0  0  0  0  0  0  0  0  0
   -0.7060   -1.4336    0.0000 C   0  0  0  0  0  0  0  0  0  0  0  0
   -0.0376   -0.6902    0.0000 C   0  0  0  0  0  0  0  0  0  0  0  0
  1  2  1  0
  2  3  2  0
  2  4  1  0
  4  5  1  0
  5  6  1  0
  6  7  1  0
  7  8  2  0
  8  9  1  0
  9 10  2  0
 10 11  1  0
 11 12  2  0
 12 13  1  0
 13 14  2  0
 14 15  1  0
 15 16  2  0
 16 17  1  0
 17 18  2  0
 18  6  1  0
 12  7  1  0
 18 13  1  0
M  ISO  1   1   2
V    1 *
M  END
>  <symbol>  (44) 
fmoc

>  <m_Rgroups>  (44) 
None,[OH],None,None,None,None

>  <m_abbr>  (44) 
fmoc

>  <m_name>  (44) 
Fmoc N-terminal cap

>  <m_type>  (44) 
cap

>  <m_subtype>  (44) 
cap

>  <m_chem_types>  (44) 
2:backbone_c

$$$$

     RDKit          2D

  8  7  0  0  0  0  0  0  0  0999 V2000
   -1.8398   -0.6554    0.0000 R   0  0  0  0  0  0  0  0  0  0  0  0
   -0.9742   -0.1548    0.0000 C   0  0  0  0  0  0  0  0  0  0  0  0
   -0.9749    0.8452    0.0000 O   0  0  0  0  0  0  0  0  0  0  0  0
   -0.1077   -0.6540    0.0000 O   0  0  0  0  0  0  0  0  0  0  0  0
    0.7579   -0.1534    0.0000 C   0  0  0  0  0  0  0  0  0  0  0  0
    0.2573    0.7122    0.0000 C   0  0  0  0  0  0  0  0  0  0  0  0
    1.2573    0.7130    0.0000 C   0  0  0  0  0  0  0  0  0  0  0  0
    1.6242   -0.6526    0.0000 C   0  0  0  0  0  0  0  0  0  0  0  0
  1  2  1  0
  2  3  2  0
  2  4  1  0
  4  5  1  0
  5  6  1  0
  5  7  1  0
  5  8  1  0
M  ISO  1   1   2
V    1 *
M  END
>  <symbol>  (45) 
boc

>  <m_Rgroups>  (45) 
None,[OH],None,None,None,None

>  <m_abbr>  (45) 
boc

>  <m_name>  (45) 
Boc sidechain amine cap

>  <m_type>  (45) 
cap

>  <m_subtype>  (45) 
cap

>  <m_chem_types>  (45) 
2:backbone_c

$$$$

     RDKit          2D

  6  5  0  0  0  0  0  0  0  0999 V2000
   -1.4432   -0.1231    0.0000 R   0  0  0  0  0  0  0  0  0  0  0  0
   -0.5768   -0.6225    0.0000 O   0  0  0  0  0  0  0  0  0  0  0  0
    0.2888   -0.1217    0.0000 C   0  0  0  0  0  0  0  0  0  0  0  0
   -0.2120    0.7439    0.0000 C   0  0  0  0  0  0  0  0  0  0  0  0
    0.7880    0.7447    0.0000 C   0  0  0  0  0  0  0  0  0  0  0  0
    1.1552   -0.6211    0.0000 C   0  0  0  0  0  0  0  0  0  0  0  0
  1  2  1  0
  2  3  1  0
  3  4  1  0
  3  5  1  0
  3  6  1  0
M  ISO  1   1   1
V    1 *
M  END
>  <symbol>  (46) 
tbu

>  <m_Rgroups>  (46) 
[H],None,None,None,None,None

>  <m_abbr>  (46) 
tbu

>  <m_name>  (46) 
tBu ester sidechain cap

>  <m_type>  (46) 
cap

>  <m_subtype>  (46) 
cap

>  <m_chem_types>  (46) 
1:backbone_n

$$$$
otbu
     RDKit          2D

  6  5  0  0  0  0  0  0  0  0999 V2000
   -2.1651    0.0000    0.0000 R   0  0  0  0  0  1  0  0  0  0  0  0
   -0.8660    0.7500    0.0000 O   0  0  0  0  0  0  0  0  0  0  0  0
    0.4330    0.0000    0.0000 C   0  0  0  0  0  0  0  0  0  0  0  0
    1.1830    1.2990    0.0000 C   0  0  0  0  0  0  0  0  0  0  0  0
   -0.3170   -1.2990    0.0000 C   0  0  0  0  0  0  0  0  0  0  0  0
    1.7321   -0.7500    0.0000 C   0  0  0  0  0  0  0  0  0  0  0  0
  1  2  1  0
  2  3  1  0
  3  4  1  0
  3  5  1  0
  3  6  1  0
M  ISO  1   1   1
M  END


>  <symbol>  (47) 
otbu

>  <m_Rgroups>  (47) 
[H],None,None,None,None,None

>  <m_abbr>  (47) 
otbu

>  <m_name>  (47) 
tBu ether sidechain cap

>  <m_type>  (47) 
cap

>  <m_subtype>  (47) 
cap

>  <m_chem_types>  (47) 
1:carbon

$$$$

     RDKit          2D

 20 22  0  0  0  0  0  0  0  0999 V2000
   -0.3978   -1.1217    0.0000 R   0  0  0  0  0  0  0  0  0  0  0  0
    0.1046   -0.2571    0.0000 C   0  0  0  0  0  0  0  0  0  0  0  0
   -0.8954   -0.2541    0.0000 C   0  0  0  0  0  0  0  0  0  0  0  0
   -1.3928    0.6133    0.0000 C   0  0  0  0  0  0  0  0  0  0  0  0
   -2.3928    0.6161    0.0000 C   0  0  0  0  0  0  0  0  0  0  0  0
   -2.8952   -0.2485    0.0000 C   0  0  0  0  0  0  0  0  0  0  0  0
   -2.3978   -1.1159    0.0000 C   0  0  0  0  0  0  0  0  0  0  0  0
   -1.3978   -1.1187    0.0000 C   0  0  0  0  0  0  0  0  0  0  0  0
    0.9692   -0.7595    0.0000 C   0  0  0  0  0  0  0  0  0  0  0  0
    0.9664   -1.7593    0.0000 C   0  0  0  0  0  0  0  0  0  0  0  0
    1.8310   -2.2617    0.0000 C   0  0  0  0  0  0  0  0  0  0  0  0
    2.6984   -1.7643    0.0000 C   0  0  0  0  0  0  0  0  0  0  0  0
    2.7012   -0.7643    0.0000 C   0  0  0  0  0  0  0  0  0  0  0  0
    1.8366   -0.2619    0.0000 C   0  0  0  0  0  0  0  0  0  0  0  0
    0.1074    0.7429    0.0000 C   0  0  0  0  0  0  0  0  0  0  0  0
    0.9748    1.2405    0.0000 C   0  0  0  0  0  0  0  0  0  0  0  0
    0.9778    2.2405    0.0000 C   0  0  0  0  0  0  0  0  0  0  0  0
    0.1130    2.7429    0.0000 C   0  0  0  0  0  0  0  0  0  0  0  0
   -0.7544    2.2453    0.0000 C   0  0  0  0  0  0  0  0  0  0  0  0
   -0.7572    1.2453    0.0000 C   0  0  0  0  0  0  0  0  0  0  0  0
  1  2  1  0
  2  3  1  0
  3  4  2  0
  4  5  1  0
  5  6  2  0
  6  7  1  0
  7  8  2  0
  2  9  1  0
  9 10  2  0
 10 11  1  0
 11 12  2  0
 12 13  1  0
 13 14  2  0
  2 15  1  0
 15 16  2  0
 16 17  1  0
 17 18  2  0
 18 19  1  0
 19 20  2  0
  8  3  1  0
 14  9  1  0
 20 15  1  0
M  ISO  1   1   2
V    1 *
M  END
>  <symbol>  (48) 
trt

>  <m_Rgroups>  (48) 
None,[Cl],None,None,None,None

>  <m_abbr>  (48) 
trt

>  <m_name>  (48) 
Trityl cap

>  <m_type>  (48) 
cap

>  <m_subtype>  (48) 
cap

>  <m_chem_types>  (48) 
2:backbone_c

$$$$

     RDKit          2D

  7  6  0  0  0  0  0  0  0  0999 V2000
   -1.8554   -0.2180    0.0000 R   0  0  0  0  0  0  0  0  0  0  0  0
   -0.9904    0.2838    0.0000 C   0  0  0  0  0  0  0  0  0  0  0  0
   -0.1232   -0.2146    0.0000 N   0  0  0  0  0  0  0  0  0  0  0  0
   -0.1212   -1.2146    0.0000 R   0  0  0  0  0  0  0  0  0  0  0  0
    0.7418    0.2872    0.0000 C   0  0  0  0  0  0  0  0  0  0  0  0
    1.6088   -0.2112    0.0000 C   0  0  0  0  0  0  0  0  0  0  0  0
    0.7398    1.2872    0.0000 O   0  0  0  0  0  0  0  0  0  0  0  0
  1  2  1  0
  2  3  1  0
  3  4  1  0
  3  5  1  0
  5  6  1  0
  5  7  2  0
M  ISO  2   1   2   4   4
V    1 *
V    4 *
M  END
>  <symbol>  (49) 
acm

>  <m_Rgroups>  (49) 
None,[Cl],None,[H],None,None

>  <m_abbr>  (49) 
acm

>  <m_name>  (49) 
Acetamidomethyl cap

>  <m_type>  (49) 
cap

>  <m_subtype>  (49) 
cap

>  <m_chem_types>  (49) 
2:backbone_c,4:amide_nh

$$$$

     RDKit          2D

 18 19  0  0  0  0  0  0  0  0999 V2000
    2.7530   -1.3078    0.0000 R   0  0  0  0  0  0  0  0  0  0  0  0
    1.8874   -0.8070    0.0000 S   0  0  0  0  0  0  0  0  0  0  0  0
    1.3866   -1.6726    0.0000 O   0  0  0  0  0  0  0  0  0  0  0  0
    2.3880    0.0586    0.0000 O   0  0  0  0  0  0  0  0  0  0  0  0
    1.0218   -0.3064    0.0000 C   0  0  0  0  0  0  0  0  0  0  0  0
    1.0226    0.6936    0.0000 C   0  0  0  0  0  0  0  0  0  0  0  0
    1.8890    1.1930    0.0000 C   0  0  0  0  0  0  0  0  0  0  0  0
    0.1570    1.1944    0.0000 C   0  0  0  0  0  0  0  0  0  0  0  0
    0.1578    2.1944    0.0000 C   0  0  0  0  0  0  0  0  0  0  0  0
   -0.7094    0.6950    0.0000 C   0  0  0  0  0  0  0  0  0  0  0  0
   -0.7102   -0.3050    0.0000 C   0  0  0  0  0  0  0  0  0  0  0  0
    0.1554   -0.8056    0.0000 C   0  0  0  0  0  0  0  0  0  0  0  0
    0.1546   -1.8056    0.0000 C   0  0  0  0  0  0  0  0  0  0  0  0
   -1.6614   -0.6132    0.0000 C   0  0  0  0  0  0  0  0  0  0  0  0
   -2.2486    0.1962    0.0000 C   0  0  0  0  0  0  0  0  0  0  0  0
   -2.9914    0.8660    0.0000 C   0  0  0  0  0  0  0  0  0  0  0  0
   -2.9924   -0.4724    0.0000 C   0  0  0  0  0  0  0  0  0  0  0  0
   -1.6602    1.0048    0.0000 O   0  0  0  0  0  0  0  0  0  0  0  0
  1  2  1  0
  2  3  2  0
  2  4  2  0
  2  5  1  0
  5  6  1  0
  6  7  1  0
  6  8  2  0
  8  9  1  0
  8 10  1  0
 10 11  2  0
 11 12  1  0
 12 13  1  0
 11 14  1  0
 14 15  1  0
 15 16  1  0
 15 17  1  0
 15 18  1  0
 12  5  2  0
 18 10  1  0
M  ISO  1   1   2
V    1 *
M  END
>  <symbol>  (50) 
pbf

>  <m_Rgroups>  (50) 
None,[OH],None,None,None,None

>  <m_abbr>  (50) 
pbf

>  <m_name>  (50) 
Pbf Arg sidechain sulfonyl cap

>  <m_type>  (50) 
cap

>  <m_subtype>  (50) 
cap

>  <m_chem_types>  (50) 
2:backbone_c

$$$$

     RDKit          2D

  8  7  0  0  0  0  0  0  0  0999 V2000
   -1.7322   -0.3736    0.0000 R   0  0  0  0  0  0  0  0  0  0  0  0
   -0.8660    0.1256    0.0000 N   0  0  0  0  0  0  0  0  0  0  0  0
   -0.8652    1.1256    0.0000 R   0  0  0  0  0  0  0  0  0  0  0  0
   -0.0002   -0.3750    0.0000 C   0  0  0  0  0  0  0  0  0  0  0  0
   -0.0010   -1.3750    0.0000 C   0  0  0  0  0  0  0  0  0  0  0  0
    0.8660    0.1244    0.0000 C   0  0  0  0  0  0  0  0  0  0  0  0
    1.7318   -0.3764    0.0000 R   0  0  0  0  0  0  0  0  0  0  0  0
    0.8668    1.1244    0.0000 O   0  0  0  0  0  0  0  0  0  0  0  0
  1  2  1  0
  2  3  1  0
  2  4  1  0
  4  5  1  1
  4  6  1  0
  6  7  1  0
  6  8  2  0
M  ISO  3   1   1   3   3   7   2
V    1 *
V    3 *
V    7 *
M  END
>  <symbol>  (51) 
dA

>  <m_Rgroups>  (51) 
[H],[OH],[H],None,None,None

>  <m_abbr>  (51) 
dA

>  <m_name>  (51) 
D-Alanine

>  <m_type>  (51) 
aa

>  <m_subtype>  (51) 
natural

>  <m_chem_types>  (51) 
1:backbone_n,2:backbone_c,3:backbone_n_mod

$$$$

     RDKit          2D

 10  9  0  0  0  0  0  0  0  0999 V2000
   -1.0360    1.6020    0.0000 R   0  0  0  0  0  0  0  0  0  0  0  0
   -1.0380    0.6020    0.0000 N   0  0  0  0  0  0  0  0  0  0  0  0
   -1.9050    0.1038    0.0000 R   0  0  0  0  0  0  0  0  0  0  0  0
   -0.1730    0.1004    0.0000 C   0  0  0  0  0  0  0  0  0  0  0  0
   -0.1750   -0.8996    0.0000 C   0  0  0  0  0  0  0  0  0  0  0  0
    0.6900   -1.4014    0.0000 S   0  0  0  0  0  0  0  0  0  0  0  0
    0.6880   -2.4014    0.0000 R   0  0  0  0  0  0  0  0  0  0  0  0
    0.6940    0.5986    0.0000 C   0  0  0  0  0  0  0  0  0  0  0  0
    1.5590    0.0968    0.0000 R   0  0  0  0  0  0  0  0  0  0  0  0
    0.6960    1.5986    0.0000 O   0  0  0  0  0  0  0  0  0  0  0  0
  1  2  1  0
  2  3  1  0
  2  4  1  0
  4  5  1  1
  5  6  1  0
  6  7  1  0
  4  8  1  0
  8  9  1  0
  8 10  2  0
M  ISO  4   1   1   3   3   7   4   9   2
V    1 *
V    3 *
V    7 *
V    9 *
M  END
>  <symbol>  (52) 
dC

>  <m_Rgroups>  (52) 
[H],[OH],[H],[H],None,None

>  <m_abbr>  (52) 
dC

>  <m_name>  (52) 
D-Cysteine

>  <m_type>  (52) 
aa

>  <m_subtype>  (52) 
natural

>  <m_chem_types>  (52) 
1:backbone_n,2:backbone_c,3:backbone_n_mod,4:thiol

$$$$

     RDKit          2D

 11 10  0  0  0  0  0  0  0  0999 V2000
   -1.1775    1.6841    0.0000 R   0  0  0  0  0  0  0  0  0  0  0  0
   -1.1795    0.6841    0.0000 N   0  0  0  0  0  0  0  0  0  0  0  0
   -2.0465    0.1859    0.0000 R   0  0  0  0  0  0  0  0  0  0  0  0
   -0.3145    0.1825    0.0000 C   0  0  0  0  0  0  0  0  0  0  0  0
   -0.3165   -0.8175    0.0000 C   0  0  0  0  0  0  0  0  0  0  0  0
    0.5485   -1.3193    0.0000 C   0  0  0  0  0  0  0  0  0  0  0  0
    0.5465   -2.3193    0.0000 R   0  0  0  0  0  0  0  0  0  0  0  0
    1.4155   -0.8209    0.0000 O   0  0  0  0  0  0  0  0  0  0  0  0
    0.5525    0.6807    0.0000 C   0  0  0  0  0  0  0  0  0  0  0  0
    1.4175    0.1789    0.0000 R   0  0  0  0  0  0  0  0  0  0  0  0
    0.5545    1.6807    0.0000 O   0  0  0  0  0  0  0  0  0  0  0  0
  1  2  1  0
  2  3  1  0
  2  4  1  0
  4  5  1  1
  5  6  1  0
  6  7  1  0
  6  8  2  0
  4  9  1  0
  9 10  1  0
  9 11  2  0
M  ISO  4   1   1   3   3   7   4  10   2
V    1 *
V    3 *
V    7 *
V   10 *
M  END
>  <symbol>  (53) 
dD

>  <m_Rgroups>  (53) 
[H],[OH],[H],[OH],None,None

>  <m_abbr>  (53) 
dD

>  <m_name>  (53) 
D-Aspartic acid

>  <m_type>  (53) 
aa

>  <m_subtype>  (53) 
natural

>  <m_chem_types>  (53) 
1:backbone_n,2:backbone_c,3:backbone_n_mod,4:carboxyl

$$$$

     RDKit          2D

 12 11  0  0  0  0  0  0  0  0999 V2000
   -1.1505   -2.0855    0.0000 R   0  0  0  0  0  0  0  0  0  0  0  0
   -1.1525   -1.0857    0.0000 N   0  0  0  0  0  0  0  0  0  0  0  0
   -2.0195   -0.5873    0.0000 R   0  0  0  0  0  0  0  0  0  0  0  0
   -0.2875   -0.5839    0.0000 C   0  0  0  0  0  0  0  0  0  0  0  0
   -0.2895    0.4161    0.0000 C   0  0  0  0  0  0  0  0  0  0  0  0
    0.5755    0.9177    0.0000 C   0  0  0  0  0  0  0  0  0  0  0  0
    0.5735    1.9177    0.0000 C   0  0  0  0  0  0  0  0  0  0  0  0
    1.4385    2.4195    0.0000 R   0  0  0  0  0  0  0  0  0  0  0  0
   -0.2935    2.4161    0.0000 O   0  0  0  0  0  0  0  0  0  0  0  0
    0.5795   -1.0821    0.0000 C   0  0  0  0  0  0  0  0  0  0  0  0
    1.4445   -0.5805    0.0000 R   0  0  0  0  0  0  0  0  0  0  0  0
    0.5815   -2.0821    0.0000 O   0  0  0  0  0  0  0  0  0  0  0  0
  1  2  1  0
  2  3  1  0
  2  4  1  0
  4  5  1  6
  5  6  1  0
  6  7  1  0
  7  8  1  0
  7  9  2  0
  4 10  1  0
 10 11  1  0
 10 12  2  0
M  ISO  4   1   1   3   3   8   4  11   2
V    1 *
V    3 *
V    8 *
V   11 *
M  END
>  <symbol>  (54) 
dE

>  <m_Rgroups>  (54) 
[H],[OH],[H],[OH],None,None

>  <m_abbr>  (54) 
dE

>  <m_name>  (54) 
D-Glutamic acid

>  <m_type>  (54) 
aa

>  <m_subtype>  (54) 
natural

>  <m_chem_types>  (54) 
1:backbone_n,2:backbone_c,3:backbone_n_mod,4:carboxyl

$$$$

     RDKit          2D

 14 14  0  0  0  0  0  0  0  0999 V2000
   -0.1314   -2.1423    0.0000 R   0  0  0  0  0  0  0  0  0  0  0  0
   -0.1278   -1.1425    0.0000 N   0  0  0  0  0  0  0  0  0  0  0  0
   -0.9920   -0.6393    0.0000 R   0  0  0  0  0  0  0  0  0  0  0  0
    0.7400   -0.6455    0.0000 C   0  0  0  0  0  0  0  0  0  0  0  0
    0.7436    0.3545    0.0000 C   0  0  0  0  0  0  0  0  0  0  0  0
   -0.1206    0.8575    0.0000 C   0  0  0  0  0  0  0  0  0  0  0  0
   -0.9884    0.3605    0.0000 C   0  0  0  0  0  0  0  0  0  0  0  0
   -1.8526    0.8637    0.0000 C   0  0  0  0  0  0  0  0  0  0  0  0
   -1.8492    1.8637    0.0000 C   0  0  0  0  0  0  0  0  0  0  0  0
   -0.9812    2.3607    0.0000 C   0  0  0  0  0  0  0  0  0  0  0  0
   -0.1172    1.8575    0.0000 C   0  0  0  0  0  0  0  0  0  0  0  0
    1.6042   -1.1487    0.0000 C   0  0  0  0  0  0  0  0  0  0  0  0
    1.6006   -2.1487    0.0000 R   0  0  0  0  0  0  0  0  0  0  0  0
    2.4720   -0.6517    0.0000 O   0  0  0  0  0  0  0  0  0  0  0  0
  1  2  1  0
  2  3  1  0
  2  4  1  0
  4  5  1  6
  5  6  1  0
  6  7  2  0
  7  8  1  0
  8  9  2  0
  9 10  1  0
 10 11  2  0
  4 12  1  0
 12 13  1  0
 12 14  2  0
 11  6  1  0
M  ISO  3   1   1   3   3  13   2
V    1 *
V    3 *
V   13 *
M  END
>  <symbol>  (55) 
dF

>  <m_Rgroups>  (55) 
[H],[OH],[H],None,None,None

>  <m_abbr>  (55) 
dF

>  <m_name>  (55) 
D-Phenylalanine

>  <m_type>  (55) 
aa

>  <m_subtype>  (55) 
natural

>  <m_chem_types>  (55) 
1:backbone_n,2:backbone_c,3:backbone_n_mod

$$$$

     RDKit          2D

 14 14  0  0  0  0  0  0  0  0999 V2000
   -0.1344   -2.2309    0.0000 R   0  0  0  0  0  0  0  0  0  0  0  0
   -0.1304   -1.2309    0.0000 N   0  0  0  0  0  0  0  0  0  0  0  0
   -0.9944   -0.7275    0.0000 R   0  0  0  0  0  0  0  0  0  0  0  0
    0.7378   -0.7345    0.0000 C   0  0  0  0  0  0  0  0  0  0  0  0
    0.7418    0.2655    0.0000 C   0  0  0  0  0  0  0  0  0  0  0  0
   -0.1222    0.7689    0.0000 C   0  0  0  0  0  0  0  0  0  0  0  0
   -0.2228    1.7637    0.0000 C   0  0  0  0  0  0  0  0  0  0  0  0
   -1.2004    1.9755    0.0000 N   0  0  0  0  0  0  0  0  0  0  0  0
   -1.6034    2.8905    0.0000 R   0  0  0  0  0  0  0  0  0  0  0  0
   -1.7034    1.1115    0.0000 C   0  0  0  0  0  0  0  0  0  0  0  0
   -1.0376    0.3655    0.0000 N   0  0  0  0  0  0  0  0  0  0  0  0
    1.6018   -1.2379    0.0000 C   0  0  0  0  0  0  0  0  0  0  0  0
    1.5978   -2.2377    0.0000 R   0  0  0  0  0  0  0  0  0  0  0  0
    2.4698   -0.7415    0.0000 O   0  0  0  0  0  0  0  0  0  0  0  0
  1  2  1  0
  2  3  1  0
  2  4  1  0
  4  5  1  6
  5  6  1  0
  6  7  2  0
  7  8  1  0
  8  9  1  0
  8 10  1  0
 10 11  2  0
  4 12  1  0
 12 13  1  0
 12 14  2  0
 11  6  1  0
M  ISO  4   1   1   3   3   9   4  13   2
V    1 *
V    3 *
V    9 *
V   13 *
M  END
>  <symbol>  (56) 
dH

>  <m_Rgroups>  (56) 
[H],[OH],[H],[H],None,None

>  <m_abbr>  (56) 
dH

>  <m_name>  (56) 
D-Histidine

>  <m_type>  (56) 
aa

>  <m_subtype>  (56) 
natural

>  <m_chem_types>  (56) 
1:backbone_n,2:backbone_c,3:backbone_n_mod,4:aromatic_nh

$$$$

     RDKit          2D

 11 10  0  0  0  0  0  0  0  0999 V2000
   -0.9413    1.7290    0.0000 R   0  0  0  0  0  0  0  0  0  0  0  0
   -0.9433    0.7292    0.0000 N   0  0  0  0  0  0  0  0  0  0  0  0
   -1.8103    0.2308    0.0000 R   0  0  0  0  0  0  0  0  0  0  0  0
   -0.0783    0.2274    0.0000 C   0  0  0  0  0  0  0  0  0  0  0  0
    0.7887    0.7256    0.0000 C   0  0  0  0  0  0  0  0  0  0  0  0
    1.6537    0.2240    0.0000 R   0  0  0  0  0  0  0  0  0  0  0  0
    0.7907    1.7256    0.0000 O   0  0  0  0  0  0  0  0  0  0  0  0
   -0.0803   -0.7726    0.0000 C   0  0  0  0  0  0  0  0  0  0  0  0
   -0.9473   -1.2708    0.0000 C   0  0  0  0  0  0  0  0  0  0  0  0
    0.7847   -1.2742    0.0000 C   0  0  0  0  0  0  0  0  0  0  0  0
    0.7827   -2.2742    0.0000 C   0  0  0  0  0  0  0  0  0  0  0  0
  1  2  1  0
  2  3  1  0
  4  2  1  1
  4  5  1  0
  5  6  1  0
  5  7  2  0
  4  8  1  0
  8  9  1  1
  8 10  1  0
 10 11  1  0
M  ISO  3   1   1   3   3   6   2
V    1 *
V    3 *
V    6 *
M  END
>  <symbol>  (57) 
dI

>  <m_Rgroups>  (57) 
[H],[OH],[H],None,None,None

>  <m_abbr>  (57) 
dI

>  <m_name>  (57) 
D-Isoleucine

>  <m_type>  (57) 
aa

>  <m_subtype>  (57) 
natural

>  <m_chem_types>  (57) 
1:backbone_n,2:backbone_c,3:backbone_n_mod

$$$$

     RDKit          2D

 14 13  0  0  0  0  0  0  0  0999 V2000
   -1.4790    2.7172    0.0000 R   0  0  0  0  0  0  0  0  0  0  0  0
   -1.4812    1.7172    0.0000 N   0  0  0  0  0  0  0  0  0  0  0  0
   -2.3482    1.2190    0.0000 R   0  0  0  0  0  0  0  0  0  0  0  0
   -0.6162    1.2156    0.0000 C   0  0  0  0  0  0  0  0  0  0  0  0
   -0.6182    0.2156    0.0000 C   0  0  0  0  0  0  0  0  0  0  0  0
    0.2468   -0.2862    0.0000 C   0  0  0  0  0  0  0  0  0  0  0  0
    0.2448   -1.2862    0.0000 C   0  0  0  0  0  0  0  0  0  0  0  0
    1.1098   -1.7878    0.0000 C   0  0  0  0  0  0  0  0  0  0  0  0
    1.1078   -2.7878    0.0000 N   0  0  0  0  0  0  0  0  0  0  0  0
    1.9728   -3.2896    0.0000 R   0  0  0  0  0  0  0  0  0  0  0  0
    0.2408   -3.2860    0.0000 R   0  0  0  0  0  0  0  0  0  0  0  0
    0.2510    1.7138    0.0000 C   0  0  0  0  0  0  0  0  0  0  0  0
    1.1160    1.2120    0.0000 R   0  0  0  0  0  0  0  0  0  0  0  0
    0.2530    2.7138    0.0000 O   0  0  0  0  0  0  0  0  0  0  0  0
  1  2  1  0
  2  3  1  0
  2  4  1  0
  4  5  1  1
  5  6  1  0
  6  7  1  0
  7  8  1  0
  8  9  1  0
  9 10  1  0
  9 11  1  0
  4 12  1  0
 12 13  1  0
 12 14  2  0
M  ISO  5   1   1   3   3  10   4  11   5  13   2
V    1 *
V    3 *
V   10 *
V   11 *
V   13 *
M  END
>  <symbol>  (58) 
dK

>  <m_Rgroups>  (58) 
[H],[OH],[H],[H],[H],None

>  <m_abbr>  (58) 
dK

>  <m_name>  (58) 
D-Lysine

>  <m_type>  (58) 
aa

>  <m_subtype>  (58) 
natural

>  <m_chem_types>  (58) 
1:backbone_n,2:backbone_c,3:backbone_n_mod,4:amine_primary,5:amine_secondary

$$$$

     RDKit          2D

 11 10  0  0  0  0  0  0  0  0999 V2000
   -1.1775    1.6841    0.0000 R   0  0  0  0  0  0  0  0  0  0  0  0
   -1.1795    0.6841    0.0000 N   0  0  0  0  0  0  0  0  0  0  0  0
   -2.0465    0.1859    0.0000 R   0  0  0  0  0  0  0  0  0  0  0  0
   -0.3145    0.1825    0.0000 C   0  0  0  0  0  0  0  0  0  0  0  0
   -0.3165   -0.8175    0.0000 C   0  0  0  0  0  0  0  0  0  0  0  0
    0.5485   -1.3193    0.0000 C   0  0  0  0  0  0  0  0  0  0  0  0
    0.5465   -2.3193    0.0000 C   0  0  0  0  0  0  0  0  0  0  0  0
    1.4155   -0.8209    0.0000 C   0  0  0  0  0  0  0  0  0  0  0  0
    0.5525    0.6807    0.0000 C   0  0  0  0  0  0  0  0  0  0  0  0
    1.4175    0.1789    0.0000 R   0  0  0  0  0  0  0  0  0  0  0  0
    0.5545    1.6807    0.0000 O   0  0  0  0  0  0  0  0  0  0  0  0
  1  2  1  0
  2  3  1  0
  2  4  1  0
  4  5  1  1
  5  6  1  0
  6  7  1  0
  6  8  1  0
  4  9  1  0
  9 10  1  0
  9 11  2  0
M  ISO  3   1   1   3   3  10   2
V    1 *
V    3 *
V   10 *
M  END
>  <symbol>  (59) 
dL

>  <m_Rgroups>  (59) 
[H],[OH],[H],None,None,None

>  <m_abbr>  (59) 
dL

>  <m_name>  (59) 
D-Leucine

>  <m_type>  (59) 
aa

>  <m_subtype>  (59) 
natural

>  <m_chem_types>  (59) 
1:backbone_n,2:backbone_c,3:backbone_n_mod

$$$$

     RDKit          2D

 11 10  0  0  0  0  0  0  0  0999 V2000
   -1.1771    1.8660    0.0000 R   0  0  0  0  0  0  0  0  0  0  0  0
   -1.1791    0.8660    0.0000 N   0  0  0  0  0  0  0  0  0  0  0  0
   -2.0463    0.3676    0.0000 R   0  0  0  0  0  0  0  0  0  0  0  0
   -0.3141    0.3642    0.0000 C   0  0  0  0  0  0  0  0  0  0  0  0
   -0.3163   -0.6358    0.0000 C   0  0  0  0  0  0  0  0  0  0  0  0
    0.5487   -1.1374    0.0000 C   0  0  0  0  0  0  0  0  0  0  0  0
    0.5467   -2.1374    0.0000 S   0  0  0  0  0  0  0  0  0  0  0  0
    1.4117   -2.6392    0.0000 C   0  0  0  0  0  0  0  0  0  0  0  0
    0.5529    0.8624    0.0000 C   0  0  0  0  0  0  0  0  0  0  0  0
    1.4179    0.3608    0.0000 R   0  0  0  0  0  0  0  0  0  0  0  0
    0.5549    1.8624    0.0000 O   0  0  0  0  0  0  0  0  0  0  0  0
  1  2  1  0
  2  3  1  0
  2  4  1  0
  4  5  1  1
  5  6  1  0
  6  7  1  0
  7  8  1  0
  4  9  1  0
  9 10  1  0
  9 11  2  0
M  ISO  3   1   1   3   3  10   2
V    1 *
V    3 *
V   10 *
M  END
>  <symbol>  (60) 
dM

>  <m_Rgroups>  (60) 
[H],[OH],[H],None,None,None

>  <m_abbr>  (60) 
dM

>  <m_name>  (60) 
D-Methionine

>  <m_type>  (60) 
aa

>  <m_subtype>  (60) 
natural

>  <m_chem_types>  (60) 
1:backbone_n,2:backbone_c,3:backbone_n_mod

$$$$

     RDKit          2D

 13 12  0  0  0  0  0  0  0  0999 V2000
   -1.2615    2.1178    0.0000 R   0  0  0  0  0  0  0  0  0  0  0  0
   -1.2635    1.1178    0.0000 N   0  0  0  0  0  0  0  0  0  0  0  0
   -2.1305    0.6196    0.0000 R   0  0  0  0  0  0  0  0  0  0  0  0
   -0.3985    0.6162    0.0000 C   0  0  0  0  0  0  0  0  0  0  0  0
   -0.4005   -0.3838    0.0000 C   0  0  0  0  0  0  0  0  0  0  0  0
    0.4645   -0.8856    0.0000 C   0  0  0  0  0  0  0  0  0  0  0  0
    1.3315   -0.3872    0.0000 O   0  0  0  0  0  0  0  0  0  0  0  0
    0.4625   -1.8856    0.0000 N   0  0  0  0  0  0  0  0  0  0  0  0
    1.3275   -2.3872    0.0000 R   0  0  0  0  0  0  0  0  0  0  0  0
   -0.4045   -2.3838    0.0000 R   0  0  0  0  0  0  0  0  0  0  0  0
    0.4687    1.1144    0.0000 C   0  0  0  0  0  0  0  0  0  0  0  0
    1.3337    0.6126    0.0000 R   0  0  0  0  0  0  0  0  0  0  0  0
    0.4707    2.1144    0.0000 O   0  0  0  0  0  0  0  0  0  0  0  0
  1  2  1  0
  2  3  1  0
  2  4  1  0
  4  5  1  1
  5  6  1  0
  6  7  2  0
  6  8  1  0
  8  9  1  0
  8 10  1  0
  4 11  1  0
 11 12  1  0
 11 13  2  0
M  ISO  5   1   1   3   3   9   4  10   5  12   2
V    1 *
V    3 *
V    9 *
V   10 *
V   12 *
M  END
>  <symbol>  (61) 
dN

>  <m_Rgroups>  (61) 
[H],[OH],[H],[H],[H],None

>  <m_abbr>  (61) 
dN

>  <m_name>  (61) 
D-Asparagine

>  <m_type>  (61) 
aa

>  <m_subtype>  (61) 
natural

>  <m_chem_types>  (61) 
1:backbone_n,2:backbone_c,3:backbone_n_mod,4:amine_primary,5:amine_secondary

$$$$

     RDKit          2D

  9  9  0  0  0  0  0  0  0  0999 V2000
   -0.9077    1.2931    0.0000 R   0  0  0  0  0  0  0  0  0  0  0  0
   -0.7499    0.3057    0.0000 N   0  0  0  0  0  0  0  0  0  0  0  0
   -1.4561   -0.4023    0.0000 C   0  0  0  0  0  0  0  0  0  0  0  0
   -1.0011   -1.2927    0.0000 C   0  0  0  0  0  0  0  0  0  0  0  0
   -0.0137   -1.1351    0.0000 C   0  0  0  0  0  0  0  0  0  0  0  0
    0.1415   -0.1473    0.0000 C   0  0  0  0  0  0  0  0  0  0  0  0
    1.0321    0.3079    0.0000 C   0  0  0  0  0  0  0  0  0  0  0  0
    1.8713   -0.2357    0.0000 R   0  0  0  0  0  0  0  0  0  0  0  0
    1.0833    1.3065    0.0000 O   0  0  0  0  0  0  0  0  0  0  0  0
  1  2  1  0
  2  3  1  0
  3  4  1  0
  4  5  1  0
  5  6  1  0
  6  7  1  1
  7  8  1  0
  7  9  2  0
  6  2  1  0
M  ISO  2   1   1   8   2
V    1 *
V    8 *
M  END
>  <symbol>  (62) 
dP

>  <m_Rgroups>  (62) 
[H],[OH],None,None,None,None

>  <m_abbr>  (62) 
dP

>  <m_name>  (62) 
D-Proline

>  <m_type>  (62) 
aa

>  <m_subtype>  (62) 
natural

>  <m_chem_types>  (62) 
1:backbone_n,2:backbone_c

$$$$

     RDKit          2D

 14 13  0  0  0  0  0  0  0  0999 V2000
   -1.4178   -2.4670    0.0000 R   0  0  0  0  0  0  0  0  0  0  0  0
   -1.4198   -1.4672    0.0000 N   0  0  0  0  0  0  0  0  0  0  0  0
   -2.2868   -0.9688    0.0000 R   0  0  0  0  0  0  0  0  0  0  0  0
   -0.5548   -0.9654    0.0000 C   0  0  0  0  0  0  0  0  0  0  0  0
   -0.5568    0.0346    0.0000 C   0  0  0  0  0  0  0  0  0  0  0  0
    0.3082    0.5362    0.0000 C   0  0  0  0  0  0  0  0  0  0  0  0
    0.3062    1.5362    0.0000 C   0  0  0  0  0  0  0  0  0  0  0  0
   -0.5608    2.0346    0.0000 O   0  0  0  0  0  0  0  0  0  0  0  0
    1.1712    2.0380    0.0000 N   0  0  0  0  0  0  0  0  0  0  0  0
    1.1692    3.0380    0.0000 R   0  0  0  0  0  0  0  0  0  0  0  0
    2.0382    1.5398    0.0000 R   0  0  0  0  0  0  0  0  0  0  0  0
    0.3122   -1.4636    0.0000 C   0  0  0  0  0  0  0  0  0  0  0  0
    1.1772   -0.9620    0.0000 R   0  0  0  0  0  0  0  0  0  0  0  0
    0.3142   -2.4636    0.0000 O   0  0  0  0  0  0  0  0  0  0  0  0
  1  2  1  0
  2  3  1  0
  2  4  1  0
  4  5  1  6
  5  6  1  0
  6  7  1  0
  7  8  2  0
  7  9  1  0
  9 10  1  0
  9 11  1  0
  4 12  1  0
 12 13  1  0
 12 14  2  0
M  ISO  5   1   1   3   3  10   4  11   5  13   2
V    1 *
V    3 *
V   10 *
V   11 *
V   13 *
M  END
>  <symbol>  (63) 
dQ

>  <m_Rgroups>  (63) 
[H],[OH],[H],[H],[H],None

>  <m_abbr>  (63) 
dQ

>  <m_name>  (63) 
D-Glutamine

>  <m_type>  (63) 
aa

>  <m_subtype>  (63) 
natural

>  <m_chem_types>  (63) 
1:backbone_n,2:backbone_c,3:backbone_n_mod,4:amine_primary,5:amine_secondary

$$$$

     RDKit          2D

 10  9  0  0  0  0  0  0  0  0999 V2000
   -1.0360    1.6020    0.0000 R   0  0  0  0  0  0  0  0  0  0  0  0
   -1.0380    0.6020    0.0000 N   0  0  0  0  0  0  0  0  0  0  0  0
   -1.9050    0.1038    0.0000 R   0  0  0  0  0  0  0  0  0  0  0  0
   -0.1730    0.1004    0.0000 C   0  0  0  0  0  0  0  0  0  0  0  0
   -0.1750   -0.8996    0.0000 C   0  0  0  0  0  0  0  0  0  0  0  0
    0.6900   -1.4014    0.0000 O   0  0  0  0  0  0  0  0  0  0  0  0
    0.6880   -2.4014    0.0000 R   0  0  0  0  0  0  0  0  0  0  0  0
    0.6940    0.5986    0.0000 C   0  0  0  0  0  0  0  0  0  0  0  0
    1.5590    0.0968    0.0000 R   0  0  0  0  0  0  0  0  0  0  0  0
    0.6960    1.5986    0.0000 O   0  0  0  0  0  0  0  0  0  0  0  0
  1  2  1  0
  2  3  1  0
  2  4  1  0
  4  5  1  1
  5  6  1  0
  6  7  1  0
  4  8  1  0
  8  9  1  0
  8 10  2  0
M  ISO  4   1   1   3   3   7   4   9   2
V    1 *
V    3 *
V    7 *
V    9 *
M  END
>  <symbol>  (64) 
dS

>  <m_Rgroups>  (64) 
[H],[OH],[H],[H],None,None

>  <m_abbr>  (64) 
dS

>  <m_name>  (64) 
D-Serine

>  <m_type>  (64) 
aa

>  <m_subtype>  (64) 
natural

>  <m_chem_types>  (64) 
1:backbone_n,2:backbone_c,3:backbone_n_mod,4:hydroxyl

$$$$

     RDKit          2D

 11 10  0  0  0  0  0  0  0  0999 V2000
   -0.9413    1.7290    0.0000 R   0  0  0  0  0  0  0  0  0  0  0  0
   -0.9433    0.7292    0.0000 N   0  0  0  0  0  0  0  0  0  0  0  0
   -1.8103    0.2308    0.0000 R   0  0  0  0  0  0  0  0  0  0  0  0
   -0.0783    0.2274    0.0000 C   0  0  0  0  0  0  0  0  0  0  0  0
    0.7887    0.7256    0.0000 C   0  0  0  0  0  0  0  0  0  0  0  0
    1.6537    0.2240    0.0000 R   0  0  0  0  0  0  0  0  0  0  0  0
    0.7907    1.7256    0.0000 O   0  0  0  0  0  0  0  0  0  0  0  0
   -0.0803   -0.7726    0.0000 C   0  0  0  0  0  0  0  0  0  0  0  0
   -0.9473   -1.2708    0.0000 C   0  0  0  0  0  0  0  0  0  0  0  0
    0.7847   -1.2742    0.0000 O   0  0  0  0  0  0  0  0  0  0  0  0
    0.7827   -2.2742    0.0000 R   0  0  0  0  0  0  0  0  0  0  0  0
  1  2  1  0
  2  3  1  0
  4  2  1  1
  4  5  1  0
  5  6  1  0
  5  7  2  0
  4  8  1  0
  8  9  1  1
  8 10  1  0
 10 11  1  0
M  ISO  4   1   1   3   3   6   2  11   4
V    1 *
V    3 *
V    6 *
V   11 *
M  END
>  <symbol>  (65) 
dT

>  <m_Rgroups>  (65) 
[H],[OH],[H],[H],None,None

>  <m_abbr>  (65) 
dT

>  <m_name>  (65) 
D-Threonine

>  <m_type>  (65) 
aa

>  <m_subtype>  (65) 
natural

>  <m_chem_types>  (65) 
1:backbone_n,2:backbone_c,3:backbone_n_mod,4:hydroxyl

$$$$

     RDKit          2D

 10  9  0  0  0  0  0  0  0  0999 V2000
   -0.8630    1.5016    0.0000 R   0  0  0  0  0  0  0  0  0  0  0  0
   -0.8650    0.5018    0.0000 N   0  0  0  0  0  0  0  0  0  0  0  0
   -1.7320    0.0034    0.0000 R   0  0  0  0  0  0  0  0  0  0  0  0
   -0.0000   -0.0000    0.0000 C   0  0  0  0  0  0  0  0  0  0  0  0
    0.8670    0.4982    0.0000 C   0  0  0  0  0  0  0  0  0  0  0  0
    1.7320   -0.0034    0.0000 R   0  0  0  0  0  0  0  0  0  0  0  0
    0.8690    1.4982    0.0000 O   0  0  0  0  0  0  0  0  0  0  0  0
   -0.0020   -1.0000    0.0000 C   0  0  0  0  0  0  0  0  0  0  0  0
    0.8630   -1.5016    0.0000 C   0  0  0  0  0  0  0  0  0  0  0  0
   -0.8690   -1.4982    0.0000 C   0  0  0  0  0  0  0  0  0  0  0  0
  1  2  1  0
  2  3  1  0
  2  4  1  0
  4  5  1  0
  5  6  1  0
  5  7  2  0
  4  8  1  1
  8  9  1  0
  8 10  1  0
M  ISO  3   1   1   3   3   6   2
V    1 *
V    3 *
V    6 *
M  END
>  <symbol>  (66) 
dV

>  <m_Rgroups>  (66) 
[H],[OH],[H],None,None,None

>  <m_abbr>  (66) 
dV

>  <m_name>  (66) 
D-Valine

>  <m_type>  (66) 
aa

>  <m_subtype>  (66) 
natural

>  <m_chem_types>  (66) 
1:backbone_n,2:backbone_c,3:backbone_n_mod

$$$$

     RDKit          2D

 18 19  0  0  0  0  0  0  0  0999 V2000
   -1.7608   -2.8281    0.0000 R   0  0  0  0  0  0  0  0  0  0  0  0
   -1.7628   -1.8279    0.0000 N   0  0  0  0  0  0  0  0  0  0  0  0
   -2.6300   -1.3297    0.0000 R   0  0  0  0  0  0  0  0  0  0  0  0
   -0.8980   -1.3261    0.0000 C   0  0  0  0  0  0  0  0  0  0  0  0
   -0.9000   -0.3261    0.0000 C   0  0  0  0  0  0  0  0  0  0  0  0
   -0.0352    0.1757    0.0000 C   0  0  0  0  0  0  0  0  0  0  0  0
    0.8792   -0.2289    0.0000 C   0  0  0  0  0  0  0  0  0  0  0  0
    1.5468    0.5155    0.0000 N   0  0  0  0  0  0  0  0  0  0  0  0
    2.5414    0.4133    0.0000 R   0  0  0  0  0  0  0  0  0  0  0  0
    1.0448    1.3805    0.0000 C   0  0  0  0  0  0  0  0  0  0  0  0
    1.3518    2.3321    0.0000 C   0  0  0  0  0  0  0  0  0  0  0  0
    0.6812    3.0739    0.0000 C   0  0  0  0  0  0  0  0  0  0  0  0
   -0.2966    2.8639    0.0000 C   0  0  0  0  0  0  0  0  0  0  0  0
   -0.6034    1.9121    0.0000 C   0  0  0  0  0  0  0  0  0  0  0  0
    0.0672    1.1705    0.0000 C   0  0  0  0  0  0  0  0  0  0  0  0
   -0.0310   -1.8243    0.0000 C   0  0  0  0  0  0  0  0  0  0  0  0
   -0.0290   -2.8243    0.0000 R   0  0  0  0  0  0  0  0  0  0  0  0
    0.8340   -1.3227    0.0000 O   0  0  0  0  0  0  0  0  0  0  0  0
  1  2  1  0
  2  3  1  0
  2  4  1  0
  4  5  1  6
  5  6  1  0
  6  7  2  0
  7  8  1  0
  8  9  1  0
  8 10  1  0
 10 11  2  0
 11 12  1  0
 12 13  2  0
 13 14  1  0
 14 15  2  0
  4 16  1  0
 16 17  1  0
 16 18  2  0
 15  6  1  0
 15 10  1  0
M  ISO  4   1   1   3   3   9   4  17   2
V    1 *
V    3 *
V    9 *
V   17 *
M  END
>  <symbol>  (67) 
dW

>  <m_Rgroups>  (67) 
[H],[OH],[H],[H],None,None

>  <m_abbr>  (67) 
dW

>  <m_name>  (67) 
D-Tryptophan

>  <m_type>  (67) 
aa

>  <m_subtype>  (67) 
natural

>  <m_chem_types>  (67) 
1:backbone_n,2:backbone_c,3:backbone_n_mod,4:aromatic_nh

$$$$

     RDKit          2D

 16 16  0  0  0  0  0  0  0  0999 V2000
    0.2075   -2.5007    0.0000 R   0  0  0  0  0  0  0  0  0  0  0  0
    0.2111   -1.5007    0.0000 N   0  0  0  0  0  0  0  0  0  0  0  0
   -0.6531   -0.9977    0.0000 R   0  0  0  0  0  0  0  0  0  0  0  0
    1.0789   -1.0039    0.0000 C   0  0  0  0  0  0  0  0  0  0  0  0
    1.0825   -0.0039    0.0000 C   0  0  0  0  0  0  0  0  0  0  0  0
    0.2183    0.4991    0.0000 C   0  0  0  0  0  0  0  0  0  0  0  0
   -0.6495    0.0023    0.0000 C   0  0  0  0  0  0  0  0  0  0  0  0
   -1.5137    0.5055    0.0000 C   0  0  0  0  0  0  0  0  0  0  0  0
   -1.5101    1.5053    0.0000 C   0  0  0  0  0  0  0  0  0  0  0  0
   -2.3743    2.0085    0.0000 O   0  0  0  0  0  0  0  0  0  0  0  0
   -2.3707    3.0085    0.0000 R   0  0  0  0  0  0  0  0  0  0  0  0
   -0.6423    2.0023    0.0000 C   0  0  0  0  0  0  0  0  0  0  0  0
    0.2219    1.4991    0.0000 C   0  0  0  0  0  0  0  0  0  0  0  0
    1.9431   -1.5069    0.0000 C   0  0  0  0  0  0  0  0  0  0  0  0
    1.9395   -2.5069    0.0000 R   0  0  0  0  0  0  0  0  0  0  0  0
    2.8109   -1.0101    0.0000 O   0  0  0  0  0  0  0  0  0  0  0  0
  1  2  1  0
  2  3  1  0
  2  4  1  0
  4  5  1  6
  5  6  1  0
  6  7  1  0
  7  8  2  0
  8  9  1  0
  9 10  1  0
 10 11  1  0
  9 12  2  0
 12 13  1  0
  4 14  1  0
 14 15  1  0
 14 16  2  0
 13  6  2  0
M  ISO  4   1   1   3   3  11   4  15   2
V    1 *
V    3 *
V   11 *
V   15 *
M  END
>  <symbol>  (68) 
dY

>  <m_Rgroups>  (68) 
[H],[OH],[H],[H],None,None

>  <m_abbr>  (68) 
dY

>  <m_name>  (68) 
D-Tyrosine

>  <m_type>  (68) 
aa

>  <m_subtype>  (68) 
natural

>  <m_chem_types>  (68) 
1:backbone_n,2:backbone_c,3:backbone_n_mod,4:hydroxyl_phenolic

$$$$

     RDKit          2D

  2  1  0  0  0  0  0  0  0  0999 V2000
   -0.5000    0.0000    0.0000 R   0  0  0  0  0  0  0  0  0  0  0  0
    0.5000    0.0000    0.0000 C   0  0  0  0  0  0  0  0  0  0  0  0
  1  2  1  0
M  ISO  1   1   2
V    1 *
M  END
>  <symbol>  (69) 
_Me

>  <m_Rgroups>  (69) 
None,[I],None,None,None,None

>  <m_abbr>  (69) 
_Me

>  <m_name>  (69) 
C-Terminal methyl

>  <m_type>  (69) 
cap

>  <m_subtype>  (69) 
cap

>  <m_chem_types>  (69) 
2:backbone_c

$$$$

     RDKit          2D

 10  9  0  0  0  0  0  0  0  0999 V2000
   -1.8821   -0.1388    0.0000 R   0  0  0  0  0  0  0  0  0  0  0  0
   -1.0157    0.3606    0.0000 N   0  0  0  0  0  0  0  0  0  0  0  0
   -1.0149    1.3606    0.0000 R   0  0  0  0  0  0  0  0  0  0  0  0
   -0.1501   -0.1400    0.0000 C   0  0  0  0  0  0  0  0  0  0  0  0
   -0.6507   -1.0056    0.0000 C   0  0  0  0  0  0  0  0  0  0  0  0
    0.3493   -1.0064    0.0000 C   0  0  0  0  0  0  0  0  0  0  0  0
    1.3493   -1.0072    0.0000 C   0  0  0  0  0  0  0  0  0  0  0  0
    0.7163    0.3592    0.0000 C   0  0  0  0  0  0  0  0  0  0  0  0
    1.5819   -0.1414    0.0000 R   0  0  0  0  0  0  0  0  0  0  0  0
    0.7171    1.3592    0.0000 O   0  0  0  0  0  0  0  0  0  0  0  0
  1  2  1  0
  2  3  1  0
  2  4  1  0
  4  5  1  1
  4  6  1  0
  6  7  1  0
  4  8  1  0
  8  9  1  0
  8 10  2  0
M  ISO  3   1   1   3   3   9   2
V    1 *
V    3 *
V    9 *
M  END
>  <symbol>  (70) 
Iva

>  <m_Rgroups>  (70) 
[H],[OH],[H],None,None,None

>  <m_abbr>  (70) 
Iva

>  <m_name>  (70) 
Isovaline

>  <m_type>  (70) 
aa

>  <m_subtype>  (70) 
natural

>  <m_chem_types>  (70) 
1:backbone_n,2:backbone_c,3:backbone_n_mod

$$$$

     RDKit          2D

 11 10  0  0  0  0  0  0  0  0999 V2000
   -0.9413    1.7290    0.0000 R   0  0  0  0  0  0  0  0  0  0  0  0
   -0.9433    0.7292    0.0000 N   0  0  0  0  0  0  0  0  0  0  0  0
   -1.8103    0.2308    0.0000 R   0  0  0  0  0  0  0  0  0  0  0  0
   -0.0783    0.2274    0.0000 C   0  0  0  0  0  0  0  0  0  0  0  0
    0.7887    0.7256    0.0000 C   0  0  0  0  0  0  0  0  0  0  0  0
    1.6537    0.2240    0.0000 R   0  0  0  0  0  0  0  0  0  0  0  0
    0.7907    1.7256    0.0000 O   0  0  0  0  0  0  0  0  0  0  0  0
   -0.0803   -0.7726    0.0000 C   0  0  0  0  0  0  0  0  0  0  0  0
   -0.9473   -1.2708    0.0000 C   0  0  0  0  0  0  0  0  0  0  0  0
    0.7847   -1.2742    0.0000 C   0  0  0  0  0  0  0  0  0  0  0  0
    0.7827   -2.2742    0.0000 C   0  0  0  0  0  0  0  0  0  0  0  0
  1  2  1  0
  2  3  1  0
  4  2  1  6
  4  5  1  0
  5  6  1  0
  5  7  2  0
  4  8  1  0
  8  9  1  1
  8 10  1  0
 10 11  1  0
M  ISO  3   1   1   3   3   6   2
V    1 *
V    3 *
V    6 *
M  END
>  <symbol>  (71) 
aIle

>  <m_Rgroups>  (71) 
[H],[OH],[H],None,None,None

>  <m_abbr>  (71) 
aIle

>  <m_name>  (71) 
L-allo-Isoleucine

>  <m_type>  (71) 
aa

>  <m_subtype>  (71) 
natural

>  <m_chem_types>  (71) 
1:backbone_n,2:backbone_c,3:backbone_n_mod

$$$$

     RDKit          2D

 11 10  0  0  0  0  0  0  0  0999 V2000
   -1.1771    1.8660    0.0000 R   0  0  0  0  0  0  0  0  0  0  0  0
   -1.1791    0.8660    0.0000 N   0  0  0  0  0  0  0  0  0  0  0  0
   -2.0463    0.3676    0.0000 R   0  0  0  0  0  0  0  0  0  0  0  0
   -0.3141    0.3642    0.0000 C   0  0  0  0  0  0  0  0  0  0  0  0
   -0.3163   -0.6358    0.0000 C   0  0  0  0  0  0  0  0  0  0  0  0
    0.5487   -1.1374    0.0000 C   0  0  0  0  0  0  0  0  0  0  0  0
    0.5467   -2.1374    0.0000 S   0  0  0  0  0  0  0  0  0  0  0  0
    1.4117   -2.6392    0.0000 R   0  0  0  0  0  0  0  0  0  0  0  0
    0.5529    0.8624    0.0000 C   0  0  0  0  0  0  0  0  0  0  0  0
    1.4179    0.3608    0.0000 R   0  0  0  0  0  0  0  0  0  0  0  0
    0.5549    1.8624    0.0000 O   0  0  0  0  0  0  0  0  0  0  0  0
  1  2  1  0
  2  3  1  0
  2  4  1  0
  4  5  1  6
  5  6  1  0
  6  7  1  0
  7  8  1  0
  4  9  1  0
  9 10  1  0
  9 11  2  0
M  ISO  4   1   1   3   3   8   4  10   2
V    1 *
V    3 *
V    8 *
V   10 *
M  END
>  <symbol>  (73) 
Hcy

>  <m_Rgroups>  (73) 
[H],[OH],[H],[H],None,None

>  <m_abbr>  (73) 
Hcy

>  <m_name>  (73) 
Homocysteine

>  <m_type>  (73) 
aa

>  <m_subtype>  (73) 
natural

>  <m_chem_types>  (73) 
1:backbone_n,2:backbone_c,3:backbone_n_mod,4:thiol

$$$$

     RDKit          2D

 11 10  0  0  0  0  0  0  0  0999 V2000
   -1.1771    1.8660    0.0000 R   0  0  0  0  0  0  0  0  0  0  0  0
   -1.1791    0.8660    0.0000 N   0  0  0  0  0  0  0  0  0  0  0  0
   -2.0463    0.3676    0.0000 R   0  0  0  0  0  0  0  0  0  0  0  0
   -0.3141    0.3642    0.0000 C   0  0  0  0  0  0  0  0  0  0  0  0
   -0.3163   -0.6358    0.0000 C   0  0  0  0  0  0  0  0  0  0  0  0
    0.5487   -1.1374    0.0000 C   0  0  0  0  0  0  0  0  0  0  0  0
    0.5467   -2.1374    0.0000 O   0  0  0  0  0  0  0  0  0  0  0  0
    1.4117   -2.6392    0.0000 R   0  0  0  0  0  0  0  0  0  0  0  0
    0.5529    0.8624    0.0000 C   0  0  0  0  0  0  0  0  0  0  0  0
    1.4179    0.3608    0.0000 R   0  0  0  0  0  0  0  0  0  0  0  0
    0.5549    1.8624    0.0000 O   0  0  0  0  0  0  0  0  0  0  0  0
  1  2  1  0
  2  3  1  0
  2  4  1  0
  4  5  1  6
  5  6  1  0
  6  7  1  0
  7  8  1  0
  4  9  1  0
  9 10  1  0
  9 11  2  0
M  ISO  4   1   1   3   3   8   4  10   2
V    1 *
V    3 *
V    8 *
V   10 *
M  END
>  <symbol>  (74) 
Hse

>  <m_Rgroups>  (74) 
[H],[OH],[H],[H],None,None

>  <m_abbr>  (74) 
Hse

>  <m_name>  (74) 
Homoserine

>  <m_type>  (74) 
aa

>  <m_subtype>  (74) 
natural

>  <m_chem_types>  (74) 
1:backbone_n,2:backbone_c,3:backbone_n_mod,4:hydroxyl

$$$$

     RDKit          2D

 11 10  0  0  0  0  0  0  0  0999 V2000
   -1.1771    1.8660    0.0000 R   0  0  0  0  0  0  0  0  0  0  0  0
   -1.1791    0.8660    0.0000 N   0  0  0  0  0  0  0  0  0  0  0  0
   -2.0463    0.3676    0.0000 R   0  0  0  0  0  0  0  0  0  0  0  0
   -0.3141    0.3642    0.0000 C   0  0  0  0  0  0  0  0  0  0  0  0
   -0.3163   -0.6358    0.0000 C   0  0  0  0  0  0  0  0  0  0  0  0
    0.5487   -1.1374    0.0000 C   0  0  0  0  0  0  0  0  0  0  0  0
    0.5467   -2.1374    0.0000 C   0  0  0  0  0  0  0  0  0  0  0  0
    1.4117   -2.6392    0.0000 C   0  0  0  0  0  0  0  0  0  0  0  0
    0.5529    0.8624    0.0000 C   0  0  0  0  0  0  0  0  0  0  0  0
    1.4179    0.3608    0.0000 R   0  0  0  0  0  0  0  0  0  0  0  0
    0.5549    1.8624    0.0000 O   0  0  0  0  0  0  0  0  0  0  0  0
  1  2  1  0
  2  3  1  0
  2  4  1  0
  4  5  1  1
  5  6  1  0
  6  7  1  0
  7  8  1  0
  4  9  1  0
  9 10  1  0
  9 11  2  0
M  ISO  3   1   1   3   3  10   2
V    1 *
V    3 *
V   10 *
M  END
>  <symbol>  (76) 
D_Nle

>  <m_Rgroups>  (76) 
[H],[OH],[H],None,None,None

>  <m_abbr>  (76) 
D_Nle

>  <m_name>  (76) 
D-Norleucine

>  <m_type>  (76) 
aa

>  <m_subtype>  (76) 
natural

>  <m_chem_types>  (76) 
1:backbone_n,2:backbone_c,3:backbone_n_mod

$$$$

     RDKit          2D

 15 15  0  0  0  0  0  0  0  0999 V2000
   -1.2600   -2.8045    0.0000 R   0  0  0  0  0  0  0  0  0  0  0  0
   -1.2636   -1.8045    0.0000 N   0  0  0  0  0  0  0  0  0  0  0  0
   -2.1314   -1.3075    0.0000 R   0  0  0  0  0  0  0  0  0  0  0  0
   -0.3994   -1.3013    0.0000 C   0  0  0  0  0  0  0  0  0  0  0  0
   -0.4030   -0.3015    0.0000 C   0  0  0  0  0  0  0  0  0  0  0  0
    0.4612    0.2017    0.0000 C   0  0  0  0  0  0  0  0  0  0  0  0
    0.4576    1.2015    0.0000 C   0  0  0  0  0  0  0  0  0  0  0  0
   -0.4104    1.6985    0.0000 C   0  0  0  0  0  0  0  0  0  0  0  0
   -0.4138    2.6985    0.0000 C   0  0  0  0  0  0  0  0  0  0  0  0
    0.4504    3.2017    0.0000 C   0  0  0  0  0  0  0  0  0  0  0  0
    1.3182    2.7047    0.0000 C   0  0  0  0  0  0  0  0  0  0  0  0
    1.3216    1.7047    0.0000 C   0  0  0  0  0  0  0  0  0  0  0  0
    0.4684   -1.7983    0.0000 C   0  0  0  0  0  0  0  0  0  0  0  0
    0.4720   -2.7983    0.0000 R   0  0  0  0  0  0  0  0  0  0  0  0
    1.3326   -1.2951    0.0000 O   0  0  0  0  0  0  0  0  0  0  0  0
  1  2  1  0
  2  3  1  0
  2  4  1  0
  4  5  1  6
  5  6  1  0
  6  7  1  0
  7  8  2  0
  8  9  1  0
  9 10  2  0
 10 11  1  0
 11 12  2  0
  4 13  1  0
 13 14  1  0
 13 15  2  0
 12  7  1  0
M  ISO  3   1   1   3   3  14   2
V    1 *
V    3 *
V   14 *
M  END
>  <symbol>  (77) 
D_hPhe

>  <m_Rgroups>  (77) 
[H],[OH],[H],None,None,None

>  <m_abbr>  (77) 
D_hPhe

>  <m_name>  (77) 
D-Homophenylalanine

>  <m_type>  (77) 
aa

>  <m_subtype>  (77) 
natural

>  <m_chem_types>  (77) 
1:backbone_n,2:backbone_c,3:backbone_n_mod

$$$$

     RDKit          2D

 11 11  0  0  0  0  0  0  0  0999 V2000
   -0.5525   -1.6951    0.0000 R   0  0  0  0  0  0  0  0  0  0  0  0
   -0.3949   -0.7077    0.0000 N   0  0  0  0  0  0  0  0  0  0  0  0
   -1.1011    0.0003    0.0000 C   0  0  0  0  0  0  0  0  0  0  0  0
   -0.6459    0.8907    0.0000 C   0  0  0  0  0  0  0  0  0  0  0  0
   -1.0989    1.7823    0.0000 O   0  0  0  0  0  0  0  0  0  0  0  0
   -2.0973    1.8359    0.0000 R   0  0  0  0  0  0  0  0  0  0  0  0
    0.3415    0.7331    0.0000 C   0  0  0  0  0  0  0  0  0  0  0  0
    0.4967   -0.2547    0.0000 C   0  0  0  0  0  0  0  0  0  0  0  0
    1.3871   -0.7099    0.0000 C   0  0  0  0  0  0  0  0  0  0  0  0
    1.4385   -1.7085    0.0000 R   0  0  0  0  0  0  0  0  0  0  0  0
    2.2265   -0.1663    0.0000 O   0  0  0  0  0  0  0  0  0  0  0  0
  1  2  1  0
  2  3  1  0
  3  4  1  0
  4  5  1  1
  5  6  1  0
  4  7  1  0
  7  8  1  0
  8  9  1  6
  9 10  1  0
  9 11  2  0
  8  2  1  0
M  ISO  3   1   1   6   3  10   2
V    1 *
V    6 *
V   10 *
M  END
>  <symbol>  (78) 
D_Hyp

>  <m_Rgroups>  (78) 
[H],[OH],[H],None,None,None

>  <m_abbr>  (78) 
D_Hyp

>  <m_name>  (78) 
D-4-Hydroxyproline

>  <m_type>  (78) 
aa

>  <m_subtype>  (78) 
natural

>  <m_chem_types>  (78) 
1:backbone_n,2:backbone_c,3:hydroxyl

$$$$

     RDKit          2D

 10  9  0  0  0  0  0  0  0  0999 V2000
   -1.0360    1.6020    0.0000 R   0  0  0  0  0  0  0  0  0  0  0  0
   -1.0380    0.6020    0.0000 N   0  0  0  0  0  0  0  0  0  0  0  0
   -1.9050    0.1038    0.0000 R   0  0  0  0  0  0  0  0  0  0  0  0
   -0.1730    0.1004    0.0000 C   0  0  0  0  0  0  0  0  0  0  0  0
   -0.1750   -0.8996    0.0000 C   0  0  0  0  0  0  0  0  0  0  0  0
    0.6900   -1.4014    0.0000 C   0  0  0  0  0  0  0  0  0  0  0  0
    0.6880   -2.4014    0.0000 C   0  0  0  0  0  0  0  0  0  0  0  0
    0.6940    0.5986    0.0000 C   0  0  0  0  0  0  0  0  0  0  0  0
    1.5590    0.0968    0.0000 R   0  0  0  0  0  0  0  0  0  0  0  0
    0.6960    1.5986    0.0000 O   0  0  0  0  0  0  0  0  0  0  0  0
  1  2  1  0
  2  3  1  0
  2  4  1  0
  4  5  1  1
  5  6  1  0
  6  7  1  0
  4  8  1  0
  8  9  1  0
  8 10  2  0
M  ISO  3   1   1   3   3   9   2
V    1 *
V    3 *
V    9 *
M  END
>  <symbol>  (79) 
D_Nva

>  <m_Rgroups>  (79) 
[H],[OH],[H],None,None,None

>  <m_abbr>  (79) 
D_Nva

>  <m_name>  (79) 
D-Norvaline

>  <m_type>  (79) 
aa

>  <m_subtype>  (79) 
natural

>  <m_chem_types>  (79) 
1:backbone_n,2:backbone_c,3:backbone_n_mod

$$$$

     RDKit          2D

 13 12  0  0  0  0  0  0  0  0999 V2000
   -1.4608    2.3106    0.0000 R   0  0  0  0  0  0  0  0  0  0  0  0
   -1.4630    1.3106    0.0000 N   0  0  0  0  0  0  0  0  0  0  0  0
   -2.3300    0.8124    0.0000 R   0  0  0  0  0  0  0  0  0  0  0  0
   -0.5980    0.8088    0.0000 C   0  0  0  0  0  0  0  0  0  0  0  0
   -0.6000   -0.1910    0.0000 C   0  0  0  0  0  0  0  0  0  0  0  0
    0.2650   -0.6928    0.0000 C   0  0  0  0  0  0  0  0  0  0  0  0
    0.2630   -1.6928    0.0000 C   0  0  0  0  0  0  0  0  0  0  0  0
    1.1280   -2.1944    0.0000 N   0  0  0  0  0  0  0  0  0  0  0  0
    1.1260   -3.1944    0.0000 R   0  0  0  0  0  0  0  0  0  0  0  0
    1.9952   -1.6962    0.0000 R   0  0  0  0  0  0  0  0  0  0  0  0
    0.2692    1.3072    0.0000 C   0  0  0  0  0  0  0  0  0  0  0  0
    1.1342    0.8054    0.0000 R   0  0  0  0  0  0  0  0  0  0  0  0
    0.2712    2.3072    0.0000 O   0  0  0  0  0  0  0  0  0  0  0  0
  1  2  1  0
  2  3  1  0
  2  4  1  0
  4  5  1  1
  5  6  1  0
  6  7  1  0
  7  8  1  0
  8  9  1  0
  8 10  1  0
  4 11  1  0
 11 12  1  0
 11 13  2  0
M  ISO  5   1   1   3   3   9   4  10   5  12   2
V    1 *
V    3 *
V    9 *
V   10 *
V   12 *
M  END
>  <symbol>  (80) 
D_Orn

>  <m_Rgroups>  (80) 
[H],[OH],[H],[H],[H],None

>  <m_abbr>  (80) 
D_Orn

>  <m_name>  (80) 
D-Ornithine

>  <m_type>  (80) 
aa

>  <m_subtype>  (80) 
natural

>  <m_chem_types>  (80) 
1:backbone_n,2:backbone_c,3:backbone_n_mod,4:amine_primary,5:amine_secondary

$$$$

     RDKit          2D

 10 10  0  0  0  0  0  0  0  0999 V2000
   -0.6631    1.3178    0.0000 R   0  0  0  0  0  0  0  0  0  0  0  0
   -0.5055    0.3304    0.0000 N   0  0  0  0  0  0  0  0  0  0  0  0
   -1.2117   -0.3776    0.0000 C   0  0  0  0  0  0  0  0  0  0  0  0
   -2.1995   -0.2224    0.0000 O   0  0  0  0  0  0  0  0  0  0  0  0
   -0.7567   -1.2680    0.0000 C   0  0  0  0  0  0  0  0  0  0  0  0
    0.2309   -1.1104    0.0000 C   0  0  0  0  0  0  0  0  0  0  0  0
    0.3861   -0.1226    0.0000 C   0  0  0  0  0  0  0  0  0  0  0  0
    1.2765    0.3326    0.0000 C   0  0  0  0  0  0  0  0  0  0  0  0
    2.1157   -0.2110    0.0000 R   0  0  0  0  0  0  0  0  0  0  0  0
    1.3277    1.3312    0.0000 O   0  0  0  0  0  0  0  0  0  0  0  0
  1  2  1  0
  2  3  1  0
  3  4  2  0
  3  5  1  0
  5  6  1  0
  6  7  1  0
  7  8  1  6
  8  9  1  0
  8 10  2  0
  7  2  1  0
M  ISO  2   1   1   9   2
V    1 *
V    9 *
M  END
>  <symbol>  (81) 
Pyr

>  <m_Rgroups>  (81) 
[H],[OH],None,None,None,None

>  <m_abbr>  (81) 
Pyr

>  <m_name>  (81) 
Pyroglutamic acid

>  <m_type>  (81) 
aa

>  <m_subtype>  (81) 
natural

>  <m_chem_types>  (81) 
1:backbone_n,2:backbone_c

$$$$

     RDKit          2D

 10 10  0  0  0  0  0  0  0  0999 V2000
   -0.6631    1.3178    0.0000 R   0  0  0  0  0  0  0  0  0  0  0  0
   -0.5055    0.3304    0.0000 N   0  0  0  0  0  0  0  0  0  0  0  0
   -1.2117   -0.3776    0.0000 C   0  0  0  0  0  0  0  0  0  0  0  0
   -2.1995   -0.2224    0.0000 O   0  0  0  0  0  0  0  0  0  0  0  0
   -0.7567   -1.2680    0.0000 C   0  0  0  0  0  0  0  0  0  0  0  0
    0.2309   -1.1104    0.0000 C   0  0  0  0  0  0  0  0  0  0  0  0
    0.3861   -0.1226    0.0000 C   0  0  0  0  0  0  0  0  0  0  0  0
    1.2765    0.3326    0.0000 C   0  0  0  0  0  0  0  0  0  0  0  0
    2.1157   -0.2110    0.0000 R   0  0  0  0  0  0  0  0  0  0  0  0
    1.3277    1.3312    0.0000 O   0  0  0  0  0  0  0  0  0  0  0  0
  1  2  1  0
  2  3  1  0
  3  4  2  0
  3  5  1  0
  5  6  1  0
  6  7  1  0
  7  8  1  1
  8  9  1  0
  8 10  2  0
  7  2  1  0
M  ISO  2   1   1   9   2
V    1 *
V    9 *
M  END
>  <symbol>  (82) 
D_Pyr

>  <m_Rgroups>  (82) 
[H],[OH],None,None,None,None

>  <m_abbr>  (82) 
D_Pyr

>  <m_name>  (82) 
D-Pyroglutamic acid

>  <m_type>  (82) 
aa

>  <m_subtype>  (82) 
natural

>  <m_chem_types>  (82) 
1:backbone_n,2:backbone_c

$$$$

     RDKit          2D

 15 15  0  0  0  0  0  0  0  0999 V2000
   -0.0559   -2.3667    0.0000 R   0  0  0  0  0  0  0  0  0  0  0  0
   -0.0567   -1.3667    0.0000 N   0  0  0  0  0  0  0  0  0  0  0  0
   -0.9231   -0.8673    0.0000 R   0  0  0  0  0  0  0  0  0  0  0  0
    0.8089   -0.8659    0.0000 C   0  0  0  0  0  0  0  0  0  0  0  0
    0.8081    0.1341    0.0000 C   0  0  0  0  0  0  0  0  0  0  0  0
   -0.0581    0.6333    0.0000 C   0  0  0  0  0  0  0  0  0  0  0  0
   -0.9239    0.1327    0.0000 C   0  0  0  0  0  0  0  0  0  0  0  0
   -1.7903    0.6319    0.0000 C   0  0  0  0  0  0  0  0  0  0  0  0
   -1.7911    1.6319    0.0000 C   0  0  0  0  0  0  0  0  0  0  0  0
   -0.9253    2.1325    0.0000 C   0  0  0  0  0  0  0  0  0  0  0  0
   -0.9261    3.1327    0.0000 Cl  0  0  0  0  0  0  0  0  0  0  0  0
   -0.0589    1.6333    0.0000 C   0  0  0  0  0  0  0  0  0  0  0  0
    1.6753   -1.3653    0.0000 C   0  0  0  0  0  0  0  0  0  0  0  0
    1.6761   -2.3653    0.0000 R   0  0  0  0  0  0  0  0  0  0  0  0
    2.5409   -0.8647    0.0000 O   0  0  0  0  0  0  0  0  0  0  0  0
  1  2  1  0
  2  3  1  0
  2  4  1  0
  4  5  1  1
  5  6  1  0
  6  7  2  0
  7  8  1  0
  8  9  2  0
  9 10  1  0
 10 11  1  0
 10 12  2  0
  4 13  1  0
 13 14  1  0
 13 15  2  0
 12  6  1  0
M  ISO  3   1   1   3   3  14   2
V    1 *
V    3 *
V   14 *
M  END
>  <symbol>  (83) 
Phe_3Cl

>  <m_Rgroups>  (83) 
[H],[OH],[H],None,None,None

>  <m_abbr>  (83) 
Phe_3Cl

>  <m_name>  (83) 
3-Chloro-L-phenylalanine

>  <m_type>  (83) 
aa

>  <m_subtype>  (83) 
natural

>  <m_chem_types>  (83) 
1:backbone_n,2:backbone_c,3:backbone_n_mod

$$$$

     RDKit          2D

 15 15  0  0  0  0  0  0  0  0999 V2000
    0.0494   -2.3001    0.0000 R   0  0  0  0  0  0  0  0  0  0  0  0
    0.0530   -1.3003    0.0000 N   0  0  0  0  0  0  0  0  0  0  0  0
   -0.8112   -0.7971    0.0000 R   0  0  0  0  0  0  0  0  0  0  0  0
    0.9208   -0.8033    0.0000 C   0  0  0  0  0  0  0  0  0  0  0  0
    0.9244    0.1967    0.0000 C   0  0  0  0  0  0  0  0  0  0  0  0
    0.0604    0.6997    0.0000 C   0  0  0  0  0  0  0  0  0  0  0  0
   -0.8076    0.2027    0.0000 C   0  0  0  0  0  0  0  0  0  0  0  0
   -1.6716    0.7059    0.0000 C   0  0  0  0  0  0  0  0  0  0  0  0
   -1.6682    1.7059    0.0000 C   0  0  0  0  0  0  0  0  0  0  0  0
   -2.5324    2.2091    0.0000 Cl  0  0  0  0  0  0  0  0  0  0  0  0
   -0.8004    2.2029    0.0000 C   0  0  0  0  0  0  0  0  0  0  0  0
    0.0638    1.6997    0.0000 C   0  0  0  0  0  0  0  0  0  0  0  0
    1.7850   -1.3065    0.0000 C   0  0  0  0  0  0  0  0  0  0  0  0
    1.7814   -2.3063    0.0000 R   0  0  0  0  0  0  0  0  0  0  0  0
    2.6528   -0.8095    0.0000 O   0  0  0  0  0  0  0  0  0  0  0  0
  1  2  1  0
  2  3  1  0
  2  4  1  0
  4  5  1  1
  5  6  1  0
  6  7  1  0
  7  8  2  0
  8  9  1  0
  9 10  1  0
  9 11  2  0
 11 12  1  0
  4 13  1  0
 13 14  1  0
 13 15  2  0
 12  6  2  0
M  ISO  3   1   1   3   3  14   2
V    1 *
V    3 *
V   14 *
M  END
>  <symbol>  (84) 
Phe_4Cl

>  <m_Rgroups>  (84) 
[H],[OH],[H],None,None,None

>  <m_abbr>  (84) 
Phe_4Cl

>  <m_name>  (84) 
4-Chloro-L-phenylalanine

>  <m_type>  (84) 
aa

>  <m_subtype>  (84) 
natural

>  <m_chem_types>  (84) 
1:backbone_n,2:backbone_c,3:backbone_n_mod

$$$$

     RDKit          2D

 17 17  0  0  0  0  0  0  0  0999 V2000
    0.3982   -2.5896    0.0000 R   0  0  0  0  0  0  0  0  0  0  0  0
    0.4018   -1.5896    0.0000 N   0  0  0  0  0  0  0  0  0  0  0  0
   -0.4624   -1.0866    0.0000 R   0  0  0  0  0  0  0  0  0  0  0  0
    1.2696   -1.0928    0.0000 C   0  0  0  0  0  0  0  0  0  0  0  0
    1.2732   -0.0928    0.0000 C   0  0  0  0  0  0  0  0  0  0  0  0
    0.4090    0.4102    0.0000 C   0  0  0  0  0  0  0  0  0  0  0  0
   -0.4588   -0.0866    0.0000 C   0  0  0  0  0  0  0  0  0  0  0  0
   -1.3230    0.4166    0.0000 C   0  0  0  0  0  0  0  0  0  0  0  0
   -1.3194    1.4164    0.0000 C   0  0  0  0  0  0  0  0  0  0  0  0
   -2.1836    1.9196    0.0000 N   0  0  0  0  0  0  0  0  0  0  0  0
   -3.0514    1.4226    0.0000 R   0  0  0  0  0  0  0  0  0  0  0  0
   -2.1800    2.9196    0.0000 R   0  0  0  0  0  0  0  0  0  0  0  0
   -0.4516    1.9134    0.0000 C   0  0  0  0  0  0  0  0  0  0  0  0
    0.4126    1.4102    0.0000 C   0  0  0  0  0  0  0  0  0  0  0  0
    2.1338   -1.5958    0.0000 C   0  0  0  0  0  0  0  0  0  0  0  0
    2.1302   -2.5958    0.0000 R   0  0  0  0  0  0  0  0  0  0  0  0
    3.0016   -1.0990    0.0000 O   0  0  0  0  0  0  0  0  0  0  0  0
  1  2  1  0
  2  3  1  0
  2  4  1  0
  4  5  1  1
  5  6  1  0
  6  7  1  0
  7  8  2  0
  8  9  1  0
  9 10  1  0
 10 11  1  0
 10 12  1  0
  9 13  2  0
 13 14  1  0
  4 15  1  0
 15 16  1  0
 15 17  2  0
 14  6  2  0
M  ISO  5   1   1   3   3  11   4  12   5  16   2
V    1 *
V    3 *
V   11 *
V   12 *
V   16 *
M  END
>  <symbol>  (85) 
Phe_4NH2

>  <m_Rgroups>  (85) 
[H],[OH],[H],[H],[H],None

>  <m_abbr>  (85) 
Phe_4NH2

>  <m_name>  (85) 
p-Aminophenylalanine

>  <m_type>  (85) 
aa

>  <m_subtype>  (85) 
natural

>  <m_chem_types>  (85) 
1:backbone_n,2:backbone_c,3:backbone_n_mod,4:amine_primary,5:amine_secondary

$$$$

     RDKit          2D

 13 13  0  0  0  0  0  0  0  0999 V2000
   -0.8703   -2.1137    0.0000 R   0  0  0  0  0  0  0  0  0  0  0  0
   -0.8683   -1.1137    0.0000 N   0  0  0  0  0  0  0  0  0  0  0  0
   -1.7333   -0.6119    0.0000 R   0  0  0  0  0  0  0  0  0  0  0  0
   -0.0013   -0.6153    0.0000 C   0  0  0  0  0  0  0  0  0  0  0  0
    0.8637   -1.1171    0.0000 C   0  0  0  0  0  0  0  0  0  0  0  0
    0.8617   -2.1171    0.0000 R   0  0  0  0  0  0  0  0  0  0  0  0
    1.7309   -0.6189    0.0000 O   0  0  0  0  0  0  0  0  0  0  0  0
    0.0007    0.3845    0.0000 C   0  0  0  0  0  0  0  0  0  0  0  0
    0.8679    0.8829    0.0000 C   0  0  0  0  0  0  0  0  0  0  0  0
    0.8697    1.8827    0.0000 C   0  0  0  0  0  0  0  0  0  0  0  0
    0.0049    2.3847    0.0000 C   0  0  0  0  0  0  0  0  0  0  0  0
   -0.8623    1.8863    0.0000 C   0  0  0  0  0  0  0  0  0  0  0  0
   -0.8641    0.8863    0.0000 C   0  0  0  0  0  0  0  0  0  0  0  0
  1  2  1  0
  2  3  1  0
  4  2  1  1
  4  5  1  0
  5  6  1  0
  5  7  2  0
  4  8  1  0
  8  9  2  0
  9 10  1  0
 10 11  2  0
 11 12  1  0
 12 13  2  0
 13  8  1  0
M  ISO  3   1   1   3   3   6   2
V    1 *
V    3 *
V    6 *
M  END
>  <symbol>  (86) 
Phg

>  <m_Rgroups>  (86) 
[H],[OH],[H],None,None,None

>  <m_abbr>  (86) 
Phg

>  <m_name>  (86) 
2-Phenylglycine

>  <m_type>  (86) 
aa

>  <m_subtype>  (86) 
natural

>  <m_chem_types>  (86) 
1:backbone_n,2:backbone_c,3:backbone_n_mod

$$$$

     RDKit          2D

 13 12  0  0  0  0  0  0  0  0999 V2000
   -1.1458    2.2612    0.0000 R   0  0  0  0  0  0  0  0  0  0  0  0
   -1.1478    1.2612    0.0000 N   0  0  0  0  0  0  0  0  0  0  0  0
   -2.0148    0.7630    0.0000 R   0  0  0  0  0  0  0  0  0  0  0  0
   -0.2828    0.7594    0.0000 C   0  0  0  0  0  0  0  0  0  0  0  0
   -0.2848   -0.2406    0.0000 C   0  0  0  0  0  0  0  0  0  0  0  0
    0.5802   -0.7422    0.0000 O   0  0  0  0  0  0  0  0  0  0  0  0
    0.5782   -1.7422    0.0000 C   0  0  0  0  0  0  0  0  0  0  0  0
   -0.4218   -1.7402    0.0000 C   0  0  0  0  0  0  0  0  0  0  0  0
    0.0764   -2.6072    0.0000 C   0  0  0  0  0  0  0  0  0  0  0  0
    1.4432   -2.2440    0.0000 C   0  0  0  0  0  0  0  0  0  0  0  0
    0.5842    1.2578    0.0000 C   0  0  0  0  0  0  0  0  0  0  0  0
    1.4492    0.7560    0.0000 R   0  0  0  0  0  0  0  0  0  0  0  0
    0.5862    2.2576    0.0000 O   0  0  0  0  0  0  0  0  0  0  0  0
  1  2  1  0
  2  3  1  0
  2  4  1  0
  4  5  1  6
  5  6  1  0
  6  7  1  0
  7  8  1  0
  7  9  1  0
  7 10  1  0
  4 11  1  0
 11 12  1  0
 11 13  2  0
M  ISO  3   1   1   3   3  12   2
V    1 *
V    3 *
V   12 *
M  END
>  <symbol>  (87) 
Ser_tBu

>  <m_Rgroups>  (87) 
[H],[OH],[H],None,None,None

>  <m_abbr>  (87) 
Ser_tBu

>  <m_name>  (87) 
O-tert-Butyl-L-serine

>  <m_type>  (87) 
aa

>  <m_subtype>  (87) 
natural

>  <m_chem_types>  (87) 
1:backbone_n,2:backbone_c,3:backbone_n_mod

$$$$

     RDKit          2D

 22 23  0  0  0  0  0  0  0  0999 V2000
    1.3254   -3.5955    0.0000 R   0  0  0  0  0  0  0  0  0  0  0  0
    1.3290   -2.5957    0.0000 N   0  0  0  0  0  0  0  0  0  0  0  0
    0.4648   -2.0925    0.0000 R   0  0  0  0  0  0  0  0  0  0  0  0
    2.1968   -2.0987    0.0000 C   0  0  0  0  0  0  0  0  0  0  0  0
    2.2004   -1.0987    0.0000 C   0  0  0  0  0  0  0  0  0  0  0  0
    1.3362   -0.5957    0.0000 C   0  0  0  0  0  0  0  0  0  0  0  0
    0.4684   -1.0927    0.0000 C   0  0  0  0  0  0  0  0  0  0  0  0
   -0.3958   -0.5895    0.0000 C   0  0  0  0  0  0  0  0  0  0  0  0
   -0.3922    0.4105    0.0000 C   0  0  0  0  0  0  0  0  0  0  0  0
   -1.2564    0.9135    0.0000 O   0  0  0  0  0  0  0  0  0  0  0  0
   -1.2528    1.9135    0.0000 C   0  0  0  0  0  0  0  0  0  0  0  0
   -2.1170    2.4167    0.0000 C   0  0  0  0  0  0  0  0  0  0  0  0
   -2.9848    1.9197    0.0000 C   0  0  0  0  0  0  0  0  0  0  0  0
   -3.8490    2.4229    0.0000 C   0  0  0  0  0  0  0  0  0  0  0  0
   -3.8454    3.4229    0.0000 C   0  0  0  0  0  0  0  0  0  0  0  0
   -2.9776    3.9197    0.0000 C   0  0  0  0  0  0  0  0  0  0  0  0
   -2.1134    3.4165    0.0000 C   0  0  0  0  0  0  0  0  0  0  0  0
    0.4756    0.9075    0.0000 C   0  0  0  0  0  0  0  0  0  0  0  0
    1.3398    0.4043    0.0000 C   0  0  0  0  0  0  0  0  0  0  0  0
    3.0610   -2.6019    0.0000 C   0  0  0  0  0  0  0  0  0  0  0  0
    3.0574   -3.6019    0.0000 R   0  0  0  0  0  0  0  0  0  0  0  0
    3.9288   -2.1049    0.0000 O   0  0  0  0  0  0  0  0  0  0  0  0
  1  2  1  0
  2  3  1  0
  2  4  1  0
  4  5  1  1
  5  6  1  0
  6  7  1  0
  7  8  2  0
  8  9  1  0
  9 10  1  0
 10 11  1  0
 11 12  1  0
 12 13  2  0
 13 14  1  0
 14 15  2  0
 15 16  1  0
 16 17  2  0
  9 18  2  0
 18 19  1  0
  4 20  1  0
 20 21  1  0
 20 22  2  0
 19  6  2  0
 17 12  1  0
M  ISO  3   1   1   3   3  21   2
V    1 *
V    3 *
V   21 *
M  END
>  <symbol>  (88) 
Tyr_Bn

>  <m_Rgroups>  (88) 
[H],[OH],[H],None,None,None

>  <m_abbr>  (88) 
Tyr_Bn

>  <m_name>  (88) 
O-Benzyl-L-tyrosine

>  <m_type>  (88) 
aa

>  <m_subtype>  (88) 
natural

>  <m_chem_types>  (88) 
1:backbone_n,2:backbone_c,3:backbone_n_mod

$$$$

     RDKit          2D

 13 13  0  0  0  0  0  0  0  0999 V2000
   -0.2470   -2.0100    0.0000 R   0  0  0  0  0  0  0  0  0  0  0  0
   -0.2484   -1.0100    0.0000 N   0  0  0  0  0  0  0  0  0  0  0  0
   -1.1150   -0.5110    0.0000 R   0  0  0  0  0  0  0  0  0  0  0  0
    0.6170   -0.5090    0.0000 C   0  0  0  0  0  0  0  0  0  0  0  0
    0.6158    0.4910    0.0000 C   0  0  0  0  0  0  0  0  0  0  0  0
   -0.2508    0.9898    0.0000 C   0  0  0  0  0  0  0  0  0  0  0  0
   -0.3564    1.9846    0.0000 C   0  0  0  0  0  0  0  0  0  0  0  0
   -1.3348    2.1910    0.0000 S   0  0  0  0  0  0  0  0  0  0  0  0
   -1.8340    1.3246    0.0000 C   0  0  0  0  0  0  0  0  0  0  0  0
   -1.1638    0.5822    0.0000 N   0  0  0  0  0  0  0  0  0  0  0  0
    1.4836   -1.0080    0.0000 C   0  0  0  0  0  0  0  0  0  0  0  0
    1.4848   -2.0080    0.0000 R   0  0  0  0  0  0  0  0  0  0  0  0
    2.3490   -0.5070    0.0000 O   0  0  0  0  0  0  0  0  0  0  0  0
  1  2  1  0
  2  3  1  0
  2  4  1  0
  4  5  1  1
  5  6  1  0
  6  7  2  0
  7  8  1  0
  8  9  1  0
  9 10  2  0
  4 11  1  0
 11 12  1  0
 11 13  2  0
 10  6  1  0
M  ISO  3   1   1   3   3  12   2
V    1 *
V    3 *
V   12 *
M  END
>  <symbol>  (89) 
Tza

>  <m_Rgroups>  (89) 
[H],[OH],[H],None,None,None

>  <m_abbr>  (89) 
Tza

>  <m_name>  (89) 
3-Thiazolylalanine

>  <m_type>  (89) 
aa

>  <m_subtype>  (89) 
natural

>  <m_chem_types>  (89) 
1:backbone_n,2:backbone_c,3:backbone_n_mod

$$$$

     RDKit          2D

 18 19  0  0  0  0  0  0  0  0999 V2000
   -1.5934   -2.8579    0.0000 R   0  0  0  0  0  0  0  0  0  0  0  0
   -1.5914   -1.8579    0.0000 N   0  0  0  0  0  0  0  0  0  0  0  0
   -2.4564   -1.3561    0.0000 R   0  0  0  0  0  0  0  0  0  0  0  0
   -0.7244   -1.3597    0.0000 C   0  0  0  0  0  0  0  0  0  0  0  0
   -0.7224   -0.3597    0.0000 C   0  0  0  0  0  0  0  0  0  0  0  0
    0.1448    0.1387    0.0000 C   0  0  0  0  0  0  0  0  0  0  0  0
    1.0096   -0.3631    0.0000 C   0  0  0  0  0  0  0  0  0  0  0  0
    1.8768    0.1351    0.0000 C   0  0  0  0  0  0  0  0  0  0  0  0
    1.8786    1.1351    0.0000 C   0  0  0  0  0  0  0  0  0  0  0  0
    1.0138    1.6369    0.0000 C   0  0  0  0  0  0  0  0  0  0  0  0
    1.0156    2.6367    0.0000 C   0  0  0  0  0  0  0  0  0  0  0  0
    0.1508    3.1387    0.0000 C   0  0  0  0  0  0  0  0  0  0  0  0
   -0.7164    2.6403    0.0000 C   0  0  0  0  0  0  0  0  0  0  0  0
   -0.7182    1.6403    0.0000 C   0  0  0  0  0  0  0  0  0  0  0  0
    0.1466    1.1385    0.0000 C   0  0  0  0  0  0  0  0  0  0  0  0
    0.1406   -1.8613    0.0000 C   0  0  0  0  0  0  0  0  0  0  0  0
    0.1386   -2.8613    0.0000 R   0  0  0  0  0  0  0  0  0  0  0  0
    1.0076   -1.3631    0.0000 O   0  0  0  0  0  0  0  0  0  0  0  0
  1  2  1  0
  2  3  1  0
  2  4  1  0
  4  5  1  1
  5  6  1  0
  6  7  2  0
  7  8  1  0
  8  9  2  0
  9 10  1  0
 10 11  2  0
 11 12  1  0
 12 13  2  0
 13 14  1  0
 14 15  2  0
  4 16  1  0
 16 17  1  0
 16 18  2  0
 15  6  1  0
 15 10  1  0
M  ISO  3   1   1   3   3  17   2
V    1 *
V    3 *
V   17 *
M  END
>  <symbol>  (90) 
1Nal

>  <m_Rgroups>  (90) 
[H],[OH],[H],None,None,None

>  <m_abbr>  (90) 
1Nal

>  <m_name>  (90) 
3-(1-naphthyl)-alanine

>  <m_type>  (90) 
aa

>  <m_subtype>  (90) 
natural

>  <m_chem_types>  (90) 
1:backbone_n,2:backbone_c,3:backbone_n_mod

$$$$

     RDKit          2D

 14 14  0  0  0  0  0  0  0  0999 V2000
   -0.1314   -2.1423    0.0000 R   0  0  0  0  0  0  0  0  0  0  0  0
   -0.1278   -1.1425    0.0000 N   0  0  0  0  0  0  0  0  0  0  0  0
   -0.9920   -0.6393    0.0000 R   0  0  0  0  0  0  0  0  0  0  0  0
    0.7400   -0.6455    0.0000 C   0  0  0  0  0  0  0  0  0  0  0  0
    0.7436    0.3545    0.0000 C   0  0  0  0  0  0  0  0  0  0  0  0
   -0.1206    0.8575    0.0000 C   0  0  0  0  0  0  0  0  0  0  0  0
   -0.9884    0.3605    0.0000 C   0  0  0  0  0  0  0  0  0  0  0  0
   -1.8526    0.8637    0.0000 C   0  0  0  0  0  0  0  0  0  0  0  0
   -1.8492    1.8637    0.0000 C   0  0  0  0  0  0  0  0  0  0  0  0
   -0.9812    2.3607    0.0000 C   0  0  0  0  0  0  0  0  0  0  0  0
   -0.1172    1.8575    0.0000 C   0  0  0  0  0  0  0  0  0  0  0  0
    1.6042   -1.1487    0.0000 C   0  0  0  0  0  0  0  0  0  0  0  0
    1.6006   -2.1487    0.0000 R   0  0  0  0  0  0  0  0  0  0  0  0
    2.4720   -0.6517    0.0000 O   0  0  0  0  0  0  0  0  0  0  0  0
  1  2  1  0
  2  3  1  0
  2  4  1  0
  4  5  1  1
  5  6  1  0
  6  7  1  0
  7  8  1  0
  8  9  1  0
  9 10  1  0
 10 11  1  0
  4 12  1  0
 12 13  1  0
 12 14  2  0
 11  6  1  0
M  ISO  3   1   1   3   3  13   2
V    1 *
V    3 *
V   13 *
M  END
>  <symbol>  (91) 
Cha

>  <m_Rgroups>  (91) 
[H],[OH],[H],None,None,None

>  <m_abbr>  (91) 
Cha

>  <m_name>  (91) 
3-Cyclohexylalanine

>  <m_type>  (91) 
aa

>  <m_subtype>  (91) 
natural

>  <m_chem_types>  (91) 
1:backbone_n,2:backbone_c,3:backbone_n_mod

$$$$

     RDKit          2D

 20 19  0  0  0  0  0  0  0  0999 V2000
   -2.3618    4.0364    0.0000 R   0  0  0  0  0  0  0  0  0  0  0  0
   -2.3638    3.0364    0.0000 N   0  0  0  0  0  0  0  0  0  0  0  0
   -3.2308    2.5380    0.0000 R   0  0  0  0  0  0  0  0  0  0  0  0
   -1.4988    2.5346    0.0000 C   0  0  0  0  0  0  0  0  0  0  0  0
   -1.5008    1.5346    0.0000 C   0  0  0  0  0  0  0  0  0  0  0  0
   -0.6358    1.0330    0.0000 C   0  0  0  0  0  0  0  0  0  0  0  0
   -0.6378    0.0330    0.0000 C   0  0  0  0  0  0  0  0  0  0  0  0
    0.2272   -0.4688    0.0000 C   0  0  0  0  0  0  0  0  0  0  0  0
    0.2252   -1.4688    0.0000 N   0  0  0  0  0  0  0  0  0  0  0  0
   -0.6418   -1.9670    0.0000 R   0  0  0  0  0  0  0  0  0  0  0  0
    1.0902   -1.9704    0.0000 C   0  0  0  0  0  0  0  0  0  0  0  0
    1.9572   -1.4722    0.0000 O   0  0  0  0  0  0  0  0  0  0  0  0
    1.0882   -2.9704    0.0000 O   0  0  0  0  0  0  0  0  0  0  0  0
    1.9532   -3.4722    0.0000 C   0  0  0  0  0  0  0  0  0  0  0  0
    2.4548   -2.6072    0.0000 C   0  0  0  0  0  0  0  0  0  0  0  0
    2.9532   -3.4742    0.0000 C   0  0  0  0  0  0  0  0  0  0  0  0
    1.9512   -4.4722    0.0000 C   0  0  0  0  0  0  0  0  0  0  0  0
   -0.6318    3.0328    0.0000 C   0  0  0  0  0  0  0  0  0  0  0  0
    0.2332    2.5312    0.0000 R   0  0  0  0  0  0  0  0  0  0  0  0
   -0.6298    4.0328    0.0000 O   0  0  0  0  0  0  0  0  0  0  0  0
  1  2  1  0
  2  3  1  0
  2  4  1  0
  4  5  1  6
  5  6  1  0
  6  7  1  0
  7  8  1  0
  8  9  1  0
  9 10  1  0
  9 11  1  0
 11 12  2  0
 11 13  1  0
 13 14  1  0
 14 15  1  0
 14 16  1  0
 14 17  1  0
  4 18  1  0
 18 19  1  0
 18 20  2  0
M  ISO  4   1   1   3   3  10   4  19   2
V    1 *
V    3 *
V   10 *
V   19 *
M  END
>  <symbol>  (92) 
Lys_Boc

>  <m_Rgroups>  (92) 
[H],[OH],[H],[H],None,None

>  <m_abbr>  (92) 
Lys_Boc

>  <m_name>  (92) 
N-epsilon-tert-Boc-L-lysine

>  <m_type>  (92) 
aa

>  <m_subtype>  (92) 
natural

>  <m_chem_types>  (92) 
1:backbone_n,2:backbone_c,3:backbone_n_mod,4:amide_nh

$$$$

     RDKit          2D

 11 10  0  0  0  0  0  0  0  0999 V2000
   -0.9413    1.7290    0.0000 R   0  0  0  0  0  0  0  0  0  0  0  0
   -0.9433    0.7292    0.0000 N   0  0  0  0  0  0  0  0  0  0  0  0
   -1.8103    0.2308    0.0000 R   0  0  0  0  0  0  0  0  0  0  0  0
   -0.0783    0.2274    0.0000 C   0  0  0  0  0  0  0  0  0  0  0  0
    0.7887    0.7256    0.0000 C   0  0  0  0  0  0  0  0  0  0  0  0
    1.6537    0.2240    0.0000 R   0  0  0  0  0  0  0  0  0  0  0  0
    0.7907    1.7256    0.0000 O   0  0  0  0  0  0  0  0  0  0  0  0
   -0.0803   -0.7726    0.0000 C   0  0  0  0  0  0  0  0  0  0  0  0
   -0.9473   -1.2708    0.0000 C   0  0  0  0  0  0  0  0  0  0  0  0
    0.7847   -1.2742    0.0000 O   0  0  0  0  0  0  0  0  0  0  0  0
    0.7827   -2.2742    0.0000 R   0  0  0  0  0  0  0  0  0  0  0  0
  1  2  1  0
  2  3  1  0
  4  2  1  6
  4  5  1  0
  5  6  1  0
  5  7  2  0
  4  8  1  0
  8  9  1  1
  8 10  1  0
 10 11  1  0
M  ISO  4   1   1   3   3   6   2  11   4
V    1 *
V    3 *
V    6 *
V   11 *
M  END
>  <symbol>  (93) 
aThr

>  <m_Rgroups>  (93) 
[H],[OH],[H],[H],None,None

>  <m_abbr>  (93) 
aThr

>  <m_name>  (93) 
L-allo-Threonine

>  <m_type>  (93) 
aa

>  <m_subtype>  (93) 
natural

>  <m_chem_types>  (93) 
1:backbone_n,2:backbone_c,3:backbone_n_mod,4:hydroxyl

$$$$

     RDKit          2D

 18 19  0  0  0  0  0  0  0  0999 V2000
    0.5793   -2.4441    0.0000 R   0  0  0  0  0  0  0  0  0  0  0  0
    0.5785   -1.4441    0.0000 N   0  0  0  0  0  0  0  0  0  0  0  0
   -0.2879   -0.9447    0.0000 R   0  0  0  0  0  0  0  0  0  0  0  0
    1.4441   -0.9433    0.0000 C   0  0  0  0  0  0  0  0  0  0  0  0
    1.4433    0.0567    0.0000 C   0  0  0  0  0  0  0  0  0  0  0  0
    0.5771    0.5559    0.0000 C   0  0  0  0  0  0  0  0  0  0  0  0
    0.5763    1.5561    0.0000 C   0  0  0  0  0  0  0  0  0  0  0  0
   -0.2903    2.0553    0.0000 C   0  0  0  0  0  0  0  0  0  0  0  0
   -1.1559    1.5547    0.0000 C   0  0  0  0  0  0  0  0  0  0  0  0
   -2.0223    2.0539    0.0000 C   0  0  0  0  0  0  0  0  0  0  0  0
   -2.8879    1.5533    0.0000 C   0  0  0  0  0  0  0  0  0  0  0  0
   -2.8871    0.5531    0.0000 C   0  0  0  0  0  0  0  0  0  0  0  0
   -2.0207    0.0539    0.0000 C   0  0  0  0  0  0  0  0  0  0  0  0
   -1.1551    0.5545    0.0000 C   0  0  0  0  0  0  0  0  0  0  0  0
   -0.2887    0.0553    0.0000 C   0  0  0  0  0  0  0  0  0  0  0  0
    2.3105   -1.4427    0.0000 C   0  0  0  0  0  0  0  0  0  0  0  0
    2.3113   -2.4427    0.0000 R   0  0  0  0  0  0  0  0  0  0  0  0
    3.1761   -0.9419    0.0000 O   0  0  0  0  0  0  0  0  0  0  0  0
  1  2  1  0
  2  3  1  0
  2  4  1  0
  4  5  1  6
  5  6  1  0
  6  7  1  0
  7  8  2  0
  8  9  1  0
  9 10  2  0
 10 11  1  0
 11 12  2  0
 12 13  1  0
 13 14  2  0
 14 15  1  0
  4 16  1  0
 16 17  1  0
 16 18  2  0
 15  6  2  0
 14  9  1  0
M  ISO  3   1   1   3   3  17   2
V    1 *
V    3 *
V   17 *
M  END
>  <symbol>  (94) 
D_2Nal

>  <m_Rgroups>  (94) 
[H],[OH],[H],None,None,None

>  <m_abbr>  (94) 
D_2Nal

>  <m_name>  (94) 
D-3-naphthylalanine

>  <m_type>  (94) 
aa

>  <m_subtype>  (94) 
natural

>  <m_chem_types>  (94) 
1:backbone_n,2:backbone_c,3:backbone_n_mod

$$$$

     RDKit          2D

 13 13  0  0  0  0  0  0  0  0999 V2000
   -0.2470   -2.0100    0.0000 R   0  0  0  0  0  0  0  0  0  0  0  0
   -0.2484   -1.0100    0.0000 N   0  0  0  0  0  0  0  0  0  0  0  0
   -1.1150   -0.5110    0.0000 R   0  0  0  0  0  0  0  0  0  0  0  0
    0.6170   -0.5090    0.0000 C   0  0  0  0  0  0  0  0  0  0  0  0
    0.6158    0.4910    0.0000 C   0  0  0  0  0  0  0  0  0  0  0  0
   -0.2508    0.9898    0.0000 C   0  0  0  0  0  0  0  0  0  0  0  0
   -0.3564    1.9846    0.0000 C   0  0  0  0  0  0  0  0  0  0  0  0
   -1.3348    2.1910    0.0000 C   0  0  0  0  0  0  0  0  0  0  0  0
   -1.8340    1.3246    0.0000 C   0  0  0  0  0  0  0  0  0  0  0  0
   -1.1638    0.5822    0.0000 S   0  0  0  0  0  0  0  0  0  0  0  0
    1.4836   -1.0080    0.0000 C   0  0  0  0  0  0  0  0  0  0  0  0
    1.4848   -2.0080    0.0000 R   0  0  0  0  0  0  0  0  0  0  0  0
    2.3490   -0.5070    0.0000 O   0  0  0  0  0  0  0  0  0  0  0  0
  1  2  1  0
  2  3  1  0
  2  4  1  0
  4  5  1  6
  5  6  1  0
  6  7  2  0
  7  8  1  0
  8  9  2  0
  9 10  1  0
  4 11  1  0
 11 12  1  0
 11 13  2  0
 10  6  1  0
M  ISO  3   1   1   3   3  12   2
V    1 *
V    3 *
V   12 *
M  END
>  <symbol>  (95) 
D_2Thi

>  <m_Rgroups>  (95) 
[H],[OH],[H],None,None,None

>  <m_abbr>  (95) 
D_2Thi

>  <m_name>  (95) 
D-3-thienylalanine

>  <m_type>  (95) 
aa

>  <m_subtype>  (95) 
natural

>  <m_chem_types>  (95) 
1:backbone_n,2:backbone_c,3:backbone_n_mod

$$$$

     RDKit          2D

 11 11  0  0  0  0  0  0  0  0999 V2000
   -0.5525   -1.6951    0.0000 R   0  0  0  0  0  0  0  0  0  0  0  0
   -0.3949   -0.7077    0.0000 N   0  0  0  0  0  0  0  0  0  0  0  0
   -1.1011    0.0003    0.0000 C   0  0  0  0  0  0  0  0  0  0  0  0
   -0.6459    0.8907    0.0000 C   0  0  0  0  0  0  0  0  0  0  0  0
   -1.0989    1.7823    0.0000 O   0  0  0  0  0  0  0  0  0  0  0  0
   -2.0973    1.8359    0.0000 R   0  0  0  0  0  0  0  0  0  0  0  0
    0.3415    0.7331    0.0000 C   0  0  0  0  0  0  0  0  0  0  0  0
    0.4967   -0.2547    0.0000 C   0  0  0  0  0  0  0  0  0  0  0  0
    1.3871   -0.7099    0.0000 C   0  0  0  0  0  0  0  0  0  0  0  0
    1.4385   -1.7085    0.0000 R   0  0  0  0  0  0  0  0  0  0  0  0
    2.2265   -0.1663    0.0000 O   0  0  0  0  0  0  0  0  0  0  0  0
  1  2  1  0
  2  3  1  0
  3  4  1  0
  4  5  1  6
  5  6  1  0
  4  7  1  0
  7  8  1  0
  8  9  1  6
  9 10  1  0
  9 11  2  0
  8  2  1  0
M  ISO  3   1   1   6   3  10   2
V    1 *
V    6 *
V   10 *
M  END
>  <symbol>  (96) 
D_aHyp

>  <m_Rgroups>  (96) 
[H],[OH],[H],None,None,None

>  <m_abbr>  (96) 
D_aHyp

>  <m_name>  (96) 
D-allo-4-hydroxyproline

>  <m_type>  (96) 
aa

>  <m_subtype>  (96) 
natural

>  <m_chem_types>  (96) 
1:backbone_n,2:backbone_c,3:hydroxyl

$$$$

     RDKit          2D

 11 10  0  0  0  0  0  0  0  0999 V2000
   -0.9413    1.7290    0.0000 R   0  0  0  0  0  0  0  0  0  0  0  0
   -0.9433    0.7292    0.0000 N   0  0  0  0  0  0  0  0  0  0  0  0
   -1.8103    0.2308    0.0000 R   0  0  0  0  0  0  0  0  0  0  0  0
   -0.0783    0.2274    0.0000 C   0  0  0  0  0  0  0  0  0  0  0  0
    0.7887    0.7256    0.0000 C   0  0  0  0  0  0  0  0  0  0  0  0
    1.6537    0.2240    0.0000 R   0  0  0  0  0  0  0  0  0  0  0  0
    0.7907    1.7256    0.0000 O   0  0  0  0  0  0  0  0  0  0  0  0
   -0.0803   -0.7726    0.0000 C   0  0  0  0  0  0  0  0  0  0  0  0
   -0.9473   -1.2708    0.0000 C   0  0  0  0  0  0  0  0  0  0  0  0
    0.7847   -1.2742    0.0000 C   0  0  0  0  0  0  0  0  0  0  0  0
    0.7827   -2.2742    0.0000 C   0  0  0  0  0  0  0  0  0  0  0  0
  1  2  1  0
  2  3  1  0
  4  2  1  1
  4  5  1  0
  5  6  1  0
  5  7  2  0
  4  8  1  0
  8  9  1  6
  8 10  1  0
 10 11  1  0
M  ISO  3   1   1   3   3   6   2
V    1 *
V    3 *
V    6 *
M  END
>  <symbol>  (97) 
D_aIle

>  <m_Rgroups>  (97) 
[H],[OH],[H],None,None,None

>  <m_abbr>  (97) 
D_aIle

>  <m_name>  (97) 
D-allo-Isoleucine

>  <m_type>  (97) 
aa

>  <m_subtype>  (97) 
natural

>  <m_chem_types>  (97) 
1:backbone_n,2:backbone_c,3:backbone_n_mod

$$$$

     RDKit          2D

 13 13  0  0  0  0  0  0  0  0999 V2000
   -0.8703   -2.1137    0.0000 R   0  0  0  0  0  0  0  0  0  0  0  0
   -0.8683   -1.1137    0.0000 N   0  0  0  0  0  0  0  0  0  0  0  0
   -1.7333   -0.6119    0.0000 R   0  0  0  0  0  0  0  0  0  0  0  0
   -0.0013   -0.6153    0.0000 C   0  0  0  0  0  0  0  0  0  0  0  0
    0.8637   -1.1171    0.0000 C   0  0  0  0  0  0  0  0  0  0  0  0
    0.8617   -2.1171    0.0000 R   0  0  0  0  0  0  0  0  0  0  0  0
    1.7309   -0.6189    0.0000 O   0  0  0  0  0  0  0  0  0  0  0  0
    0.0007    0.3845    0.0000 C   0  0  0  0  0  0  0  0  0  0  0  0
    0.8679    0.8829    0.0000 C   0  0  0  0  0  0  0  0  0  0  0  0
    0.8697    1.8827    0.0000 C   0  0  0  0  0  0  0  0  0  0  0  0
    0.0049    2.3847    0.0000 C   0  0  0  0  0  0  0  0  0  0  0  0
   -0.8623    1.8863    0.0000 C   0  0  0  0  0  0  0  0  0  0  0  0
   -0.8641    0.8863    0.0000 C   0  0  0  0  0  0  0  0  0  0  0  0
  1  2  1  0
  2  3  1  0
  4  2  1  6
  4  5  1  0
  5  6  1  0
  5  7  2  0
  4  8  1  0
  8  9  2  0
  9 10  1  0
 10 11  2  0
 11 12  1  0
 12 13  2  0
 13  8  1  0
M  ISO  3   1   1   3   3   6   2
V    1 *
V    3 *
V    6 *
M  END
>  <symbol>  (98) 
D_Phg

>  <m_Rgroups>  (98) 
[H],[OH],[H],None,None,None

>  <m_abbr>  (98) 
D_Phg

>  <m_name>  (98) 
D-2-phenylglycine

>  <m_type>  (98) 
aa

>  <m_subtype>  (98) 
natural

>  <m_chem_types>  (98) 
1:backbone_n,2:backbone_c,3:backbone_n_mod

$$$$

     RDKit          2D

 13 12  0  0  0  0  0  0  0  0999 V2000
   -1.1458    2.2612    0.0000 R   0  0  0  0  0  0  0  0  0  0  0  0
   -1.1478    1.2612    0.0000 N   0  0  0  0  0  0  0  0  0  0  0  0
   -2.0148    0.7630    0.0000 R   0  0  0  0  0  0  0  0  0  0  0  0
   -0.2828    0.7594    0.0000 C   0  0  0  0  0  0  0  0  0  0  0  0
   -0.2848   -0.2406    0.0000 C   0  0  0  0  0  0  0  0  0  0  0  0
    0.5802   -0.7422    0.0000 O   0  0  0  0  0  0  0  0  0  0  0  0
    0.5782   -1.7422    0.0000 C   0  0  0  0  0  0  0  0  0  0  0  0
   -0.4218   -1.7402    0.0000 C   0  0  0  0  0  0  0  0  0  0  0  0
    0.0764   -2.6072    0.0000 C   0  0  0  0  0  0  0  0  0  0  0  0
    1.4432   -2.2440    0.0000 C   0  0  0  0  0  0  0  0  0  0  0  0
    0.5842    1.2578    0.0000 C   0  0  0  0  0  0  0  0  0  0  0  0
    1.4492    0.7560    0.0000 R   0  0  0  0  0  0  0  0  0  0  0  0
    0.5862    2.2576    0.0000 O   0  0  0  0  0  0  0  0  0  0  0  0
  1  2  1  0
  2  3  1  0
  2  4  1  0
  4  5  1  1
  5  6  1  0
  6  7  1  0
  7  8  1  0
  7  9  1  0
  7 10  1  0
  4 11  1  0
 11 12  1  0
 11 13  2  0
M  ISO  3   1   1   3   3  12   2
V    1 *
V    3 *
V   12 *
M  END
>  <symbol>  (99) 
D_Ser_tBu

>  <m_Rgroups>  (99) 
[H],[OH],[H],None,None,None

>  <m_abbr>  (99) 
D_Ser_tBu

>  <m_name>  (99) 
O-tert-Butyl-D-serine

>  <m_type>  (99) 
aa

>  <m_subtype>  (99) 
natural

>  <m_chem_types>  (99) 
1:backbone_n,2:backbone_c,3:backbone_n_mod

$$$$

     RDKit          2D

 12 11  0  0  0  0  0  0  0  0999 V2000
   -0.5262   -1.8012    0.0000 R   0  0  0  0  0  0  0  0  0  0  0  0
   -0.5281   -0.8030    0.0000 N   0  0  0  0  0  0  0  0  0  0  0  0
   -1.4060   -0.3036    0.0000 R   0  0  0  0  0  0  0  0  0  0  0  0
    0.3555   -0.2954    0.0000 C   0  0  0  0  0  0  0  0  0  0  0  0
    0.3687    0.7086    0.0000 C   0  0  0  0  0  0  0  0  0  0  0  0
   -0.4850    1.2164    0.0000 S   0  0  0  0  0  0  0  0  0  0  0  0
   -0.9744    0.3708    0.0000 O   0  0  0  0  0  0  0  0  0  0  0  0
    0.0173    2.0762    0.0000 O   0  0  0  0  0  0  0  0  0  0  0  0
   -1.3519    1.7148    0.0000 O   0  0  0  0  0  0  0  0  0  0  0  0
    1.2207   -0.7960    0.0000 C   0  0  0  0  0  0  0  0  0  0  0  0
    1.2212   -1.7934    0.0000 R   0  0  0  0  0  0  0  0  0  0  0  0
    2.0883   -0.2942    0.0000 O   0  0  0  0  0  0  0  0  0  0  0  0
  1  2  1  0
  2  3  1  0
  2  4  1  0
  4  5  1  1
  5  6  1  0
  6  7  2  0
  6  8  2  0
  6  9  1  0
  4 10  1  0
 10 11  1  0
 10 12  2  0
M  ISO  3   1   1   3   3  11   2
V    1 *
V    3 *
V   11 *
M  END
>  <symbol>  (100) 
Cya

>  <m_Rgroups>  (100) 
[H],[OH],[H],None,None,None

>  <m_abbr>  (100) 
Cya

>  <m_name>  (100) 
3-Sulfoalanine

>  <m_type>  (100) 
aa

>  <m_subtype>  (100) 
natural

>  <m_chem_types>  (100) 
1:backbone_n,2:backbone_c,3:backbone_n_mod

$$$$

     RDKit          2D

 15 14  0  0  0  0  0  0  0  0999 V2000
   -1.5106    2.9274    0.0000 R   0  0  0  0  0  0  0  0  0  0  0  0
   -1.5126    1.9274    0.0000 N   0  0  0  0  0  0  0  0  0  0  0  0
   -2.3798    1.4292    0.0000 R   0  0  0  0  0  0  0  0  0  0  0  0
   -0.6476    1.4256    0.0000 C   0  0  0  0  0  0  0  0  0  0  0  0
   -0.6496    0.4256    0.0000 C   0  0  0  0  0  0  0  0  0  0  0  0
    0.2154   -0.0760    0.0000 C   0  0  0  0  0  0  0  0  0  0  0  0
    0.2132   -1.0760    0.0000 C   0  0  0  0  0  0  0  0  0  0  0  0
    1.0784   -1.5778    0.0000 C   0  0  0  0  0  0  0  0  0  0  0  0
    1.0762   -2.5776    0.0000 N   0  0  0  0  0  0  0  0  0  0  0  0
    0.0764   -2.5756    0.0000 C   0  0  0  0  0  0  0  0  0  0  0  0
    0.5746   -3.4428    0.0000 C   0  0  0  0  0  0  0  0  0  0  0  0
    1.9412   -3.0794    0.0000 C   0  0  0  0  0  0  0  0  0  0  0  0
    0.2194    1.9240    0.0000 C   0  0  0  0  0  0  0  0  0  0  0  0
    1.0844    1.4222    0.0000 R   0  0  0  0  0  0  0  0  0  0  0  0
    0.2214    2.9240    0.0000 O   0  0  0  0  0  0  0  0  0  0  0  0
  1  2  1  0
  2  3  1  0
  2  4  1  0
  4  5  1  6
  5  6  1  0
  6  7  1  0
  7  8  1  0
  8  9  1  0
  9 10  1  0
  9 11  1  0
  9 12  1  0
  4 13  1  0
 13 14  1  0
 13 15  2  0
M  CHG  1   9   1
M  ISO  3   1   1   3   3  14   2
V    1 *
V    3 *
V   14 *
M  END
>  <symbol>  (101) 
Lys_Me3

>  <m_Rgroups>  (101) 
[H],[OH],[H],None,None,None

>  <m_abbr>  (101) 
Lys_Me3

>  <m_name>  (101) 
Epsilon-N-trimethyllysine

>  <m_type>  (101) 
aa

>  <m_subtype>  (101) 
natural

>  <m_chem_types>  (101) 
1:backbone_n,2:backbone_c,3:backbone_n_mod

$$$$

     RDKit          2D

 12 11  0  0  0  0  0  0  0  0999 V2000
   -0.8817    1.8239    0.0000 R   0  0  0  0  0  0  0  0  0  0  0  0
   -0.8837    0.8239    0.0000 N   0  0  0  0  0  0  0  0  0  0  0  0
   -1.7507    0.3257    0.0000 R   0  0  0  0  0  0  0  0  0  0  0  0
   -0.0187    0.3221    0.0000 C   0  0  0  0  0  0  0  0  0  0  0  0
    0.8483    0.8205    0.0000 C   0  0  0  0  0  0  0  0  0  0  0  0
    1.7133    0.3187    0.0000 R   0  0  0  0  0  0  0  0  0  0  0  0
    0.8503    1.8205    0.0000 O   0  0  0  0  0  0  0  0  0  0  0  0
   -0.0207   -0.6779    0.0000 C   0  0  0  0  0  0  0  0  0  0  0  0
   -1.0207   -0.6757    0.0000 C   0  0  0  0  0  0  0  0  0  0  0  0
   -0.5223   -1.5429    0.0000 C   0  0  0  0  0  0  0  0  0  0  0  0
    0.8443   -1.1795    0.0000 S   0  0  0  0  0  0  0  0  0  0  0  0
    0.8423   -2.1795    0.0000 R   0  0  0  0  0  0  0  0  0  0  0  0
  1  2  1  0
  2  3  1  0
  4  2  1  6
  4  5  1  0
  5  6  1  0
  5  7  2  0
  4  8  1  0
  8  9  1  0
  8 10  1  0
  8 11  1  0
 11 12  1  0
M  ISO  4   1   1   3   3   6   2  12   4
V    1 *
V    3 *
V    6 *
V   12 *
M  END
>  <symbol>  (102) 
Pen

>  <m_Rgroups>  (102) 
[H],[OH],[H],[H],None,None

>  <m_abbr>  (102) 
Pen

>  <m_name>  (102) 
Penicillamine (3-mercaptovaline)

>  <m_type>  (102) 
aa

>  <m_subtype>  (102) 
natural

>  <m_chem_types>  (102) 
1:backbone_n,2:backbone_c,3:backbone_n_mod,4:thiol

$$$$

     RDKit          2D

 15 15  0  0  0  0  0  0  0  0999 V2000
    0.0494   -2.3001    0.0000 R   0  0  0  0  0  0  0  0  0  0  0  0
    0.0530   -1.3003    0.0000 N   0  0  0  0  0  0  0  0  0  0  0  0
   -0.8112   -0.7971    0.0000 R   0  0  0  0  0  0  0  0  0  0  0  0
    0.9208   -0.8033    0.0000 C   0  0  0  0  0  0  0  0  0  0  0  0
    0.9244    0.1967    0.0000 C   0  0  0  0  0  0  0  0  0  0  0  0
    0.0604    0.6997    0.0000 C   0  0  0  0  0  0  0  0  0  0  0  0
   -0.8076    0.2027    0.0000 C   0  0  0  0  0  0  0  0  0  0  0  0
   -1.6716    0.7059    0.0000 C   0  0  0  0  0  0  0  0  0  0  0  0
   -1.6682    1.7059    0.0000 C   0  0  0  0  0  0  0  0  0  0  0  0
   -2.5324    2.2091    0.0000 C   0  0  0  0  0  0  0  0  0  0  0  0
   -0.8004    2.2029    0.0000 C   0  0  0  0  0  0  0  0  0  0  0  0
    0.0638    1.6997    0.0000 C   0  0  0  0  0  0  0  0  0  0  0  0
    1.7850   -1.3065    0.0000 C   0  0  0  0  0  0  0  0  0  0  0  0
    1.7814   -2.3063    0.0000 R   0  0  0  0  0  0  0  0  0  0  0  0
    2.6528   -0.8095    0.0000 O   0  0  0  0  0  0  0  0  0  0  0  0
  1  2  1  0
  2  3  1  0
  2  4  1  0
  4  5  1  1
  5  6  1  0
  6  7  1  0
  7  8  2  0
  8  9  1  0
  9 10  1  0
  9 11  2  0
 11 12  1  0
  4 13  1  0
 13 14  1  0
 13 15  2  0
 12  6  2  0
M  ISO  3   1   1   3   3  14   2
V    1 *
V    3 *
V   14 *
M  END
>  <symbol>  (103) 
Phe_4Me

>  <m_Rgroups>  (103) 
[H],[OH],[H],None,None,None

>  <m_abbr>  (103) 
Phe_4Me

>  <m_name>  (103) 
p-Methylphenylalanine

>  <m_type>  (103) 
aa

>  <m_subtype>  (103) 
natural

>  <m_chem_types>  (103) 
1:backbone_n,2:backbone_c,3:backbone_n_mod

$$$$

     RDKit          2D

 16 16  0  0  0  0  0  0  0  0999 V2000
   -1.9428    2.8788    0.0000 R   0  0  0  0  0  0  0  0  0  0  0  0
   -1.9448    1.8788    0.0000 N   0  0  0  0  0  0  0  0  0  0  0  0
   -2.8118    1.3806    0.0000 R   0  0  0  0  0  0  0  0  0  0  0  0
   -1.0798    1.3772    0.0000 C   0  0  0  0  0  0  0  0  0  0  0  0
   -1.0818    0.3772    0.0000 C   0  0  0  0  0  0  0  0  0  0  0  0
   -0.2168   -0.1246    0.0000 O   0  0  0  0  0  0  0  0  0  0  0  0
   -0.2188   -1.1246    0.0000 C   0  0  0  0  0  0  0  0  0  0  0  0
    0.6462   -1.6262    0.0000 C   0  0  0  0  0  0  0  0  0  0  0  0
    0.6442   -2.6262    0.0000 C   0  0  0  0  0  0  0  0  0  0  0  0
    1.5092   -3.1280    0.0000 C   0  0  0  0  0  0  0  0  0  0  0  0
    2.3764   -2.6298    0.0000 C   0  0  0  0  0  0  0  0  0  0  0  0
    2.3782   -1.6298    0.0000 C   0  0  0  0  0  0  0  0  0  0  0  0
    1.5132   -1.1280    0.0000 C   0  0  0  0  0  0  0  0  0  0  0  0
   -0.2128    1.8754    0.0000 C   0  0  0  0  0  0  0  0  0  0  0  0
    0.6522    1.3736    0.0000 R   0  0  0  0  0  0  0  0  0  0  0  0
   -0.2108    2.8754    0.0000 O   0  0  0  0  0  0  0  0  0  0  0  0
  1  2  1  0
  2  3  1  0
  2  4  1  0
  4  5  1  6
  5  6  1  0
  6  7  1  0
  7  8  1  0
  8  9  2  0
  9 10  1  0
 10 11  2  0
 11 12  1  0
 12 13  2  0
  4 14  1  0
 14 15  1  0
 14 16  2  0
 13  8  1  0
M  ISO  3   1   1   3   3  15   2
V    1 *
V    3 *
V   15 *
M  END
>  <symbol>  (104) 
Ser_Bn

>  <m_Rgroups>  (104) 
[H],[OH],[H],None,None,None

>  <m_abbr>  (104) 
Ser_Bn

>  <m_name>  (104) 
O-Benzyl-L-serine

>  <m_type>  (104) 
aa

>  <m_subtype>  (104) 
natural

>  <m_chem_types>  (104) 
1:backbone_n,2:backbone_c,3:backbone_n_mod

$$$$

     RDKit          2D

 19 19  0  0  0  0  0  0  0  0999 V2000
    0.5480   -3.0475    0.0000 R   0  0  0  0  0  0  0  0  0  0  0  0
    0.5518   -2.0475    0.0000 N   0  0  0  0  0  0  0  0  0  0  0  0
   -0.3124   -1.5445    0.0000 R   0  0  0  0  0  0  0  0  0  0  0  0
    1.4196   -1.5507    0.0000 C   0  0  0  0  0  0  0  0  0  0  0  0
    1.4232   -0.5507    0.0000 C   0  0  0  0  0  0  0  0  0  0  0  0
    0.5590   -0.0477    0.0000 C   0  0  0  0  0  0  0  0  0  0  0  0
   -0.3088   -0.5445    0.0000 C   0  0  0  0  0  0  0  0  0  0  0  0
   -1.1730   -0.0413    0.0000 C   0  0  0  0  0  0  0  0  0  0  0  0
   -1.1696    0.9585    0.0000 C   0  0  0  0  0  0  0  0  0  0  0  0
   -2.0336    1.4617    0.0000 O   0  0  0  0  0  0  0  0  0  0  0  0
   -2.0300    2.4617    0.0000 C   0  0  0  0  0  0  0  0  0  0  0  0
   -1.0302    2.4581    0.0000 C   0  0  0  0  0  0  0  0  0  0  0  0
   -1.5270    3.3259    0.0000 C   0  0  0  0  0  0  0  0  0  0  0  0
   -2.8942    2.9647    0.0000 C   0  0  0  0  0  0  0  0  0  0  0  0
   -0.3016    1.4555    0.0000 C   0  0  0  0  0  0  0  0  0  0  0  0
    0.5624    0.9523    0.0000 C   0  0  0  0  0  0  0  0  0  0  0  0
    2.2838   -2.0537    0.0000 C   0  0  0  0  0  0  0  0  0  0  0  0
    2.2802   -3.0537    0.0000 R   0  0  0  0  0  0  0  0  0  0  0  0
    3.1516   -1.5569    0.0000 O   0  0  0  0  0  0  0  0  0  0  0  0
  1  2  1  0
  2  3  1  0
  2  4  1  0
  4  5  1  1
  5  6  1  0
  6  7  1  0
  7  8  2  0
  8  9  1  0
  9 10  1  0
 10 11  1  0
 11 12  1  0
 11 13  1  0
 11 14  1  0
  9 15  2  0
 15 16  1  0
  4 17  1  0
 17 18  1  0
 17 19  2  0
 16  6  2  0
M  ISO  3   1   1   3   3  18   2
V    1 *
V    3 *
V   18 *
M  END
>  <symbol>  (105) 
Tyr_tBu

>  <m_Rgroups>  (105) 
[H],[OH],[H],None,None,None

>  <m_abbr>  (105) 
Tyr_tBu

>  <m_name>  (105) 
O-tert-Butyl-L-tyrosine

>  <m_type>  (105) 
aa

>  <m_subtype>  (105) 
natural

>  <m_chem_types>  (105) 
1:backbone_n,2:backbone_c,3:backbone_n_mod

$$$$

     RDKit          2D

 18 19  0  0  0  0  0  0  0  0999 V2000
    0.5793   -2.4441    0.0000 R   0  0  0  0  0  0  0  0  0  0  0  0
    0.5785   -1.4441    0.0000 N   0  0  0  0  0  0  0  0  0  0  0  0
   -0.2879   -0.9447    0.0000 R   0  0  0  0  0  0  0  0  0  0  0  0
    1.4441   -0.9433    0.0000 C   0  0  0  0  0  0  0  0  0  0  0  0
    1.4433    0.0567    0.0000 C   0  0  0  0  0  0  0  0  0  0  0  0
    0.5771    0.5559    0.0000 C   0  0  0  0  0  0  0  0  0  0  0  0
    0.5763    1.5561    0.0000 C   0  0  0  0  0  0  0  0  0  0  0  0
   -0.2903    2.0553    0.0000 C   0  0  0  0  0  0  0  0  0  0  0  0
   -1.1559    1.5547    0.0000 C   0  0  0  0  0  0  0  0  0  0  0  0
   -2.0223    2.0539    0.0000 C   0  0  0  0  0  0  0  0  0  0  0  0
   -2.8879    1.5533    0.0000 C   0  0  0  0  0  0  0  0  0  0  0  0
   -2.8871    0.5531    0.0000 C   0  0  0  0  0  0  0  0  0  0  0  0
   -2.0207    0.0539    0.0000 C   0  0  0  0  0  0  0  0  0  0  0  0
   -1.1551    0.5545    0.0000 C   0  0  0  0  0  0  0  0  0  0  0  0
   -0.2887    0.0553    0.0000 C   0  0  0  0  0  0  0  0  0  0  0  0
    2.3105   -1.4427    0.0000 C   0  0  0  0  0  0  0  0  0  0  0  0
    2.3113   -2.4427    0.0000 R   0  0  0  0  0  0  0  0  0  0  0  0
    3.1761   -0.9419    0.0000 O   0  0  0  0  0  0  0  0  0  0  0  0
  1  2  1  0
  2  3  1  0
  2  4  1  0
  4  5  1  1
  5  6  1  0
  6  7  1  0
  7  8  2  0
  8  9  1  0
  9 10  2  0
 10 11  1  0
 11 12  2  0
 12 13  1  0
 13 14  2  0
 14 15  1  0
  4 16  1  0
 16 17  1  0
 16 18  2  0
 15  6  2  0
 14  9  1  0
M  ISO  3   1   1   3   3  17   2
V    1 *
V    3 *
V   17 *
M  END
>  <symbol>  (106) 
2Nal

>  <m_Rgroups>  (106) 
[H],[OH],[H],None,None,None

>  <m_abbr>  (106) 
2Nal

>  <m_name>  (106) 
3-Naphthylalanine

>  <m_type>  (106) 
aa

>  <m_subtype>  (106) 
natural

>  <m_chem_types>  (106) 
1:backbone_n,2:backbone_c,3:backbone_n_mod

$$$$

     RDKit          2D

 13 13  0  0  0  0  0  0  0  0999 V2000
   -0.2470   -2.0100    0.0000 R   0  0  0  0  0  0  0  0  0  0  0  0
   -0.2484   -1.0100    0.0000 N   0  0  0  0  0  0  0  0  0  0  0  0
   -1.1150   -0.5110    0.0000 R   0  0  0  0  0  0  0  0  0  0  0  0
    0.6170   -0.5090    0.0000 C   0  0  0  0  0  0  0  0  0  0  0  0
    0.6158    0.4910    0.0000 C   0  0  0  0  0  0  0  0  0  0  0  0
   -0.2508    0.9898    0.0000 C   0  0  0  0  0  0  0  0  0  0  0  0
   -0.3564    1.9846    0.0000 C   0  0  0  0  0  0  0  0  0  0  0  0
   -1.3348    2.1910    0.0000 C   0  0  0  0  0  0  0  0  0  0  0  0
   -1.8340    1.3246    0.0000 C   0  0  0  0  0  0  0  0  0  0  0  0
   -1.1638    0.5822    0.0000 S   0  0  0  0  0  0  0  0  0  0  0  0
    1.4836   -1.0080    0.0000 C   0  0  0  0  0  0  0  0  0  0  0  0
    1.4848   -2.0080    0.0000 R   0  0  0  0  0  0  0  0  0  0  0  0
    2.3490   -0.5070    0.0000 O   0  0  0  0  0  0  0  0  0  0  0  0
  1  2  1  0
  2  3  1  0
  2  4  1  0
  4  5  1  1
  5  6  1  0
  6  7  2  0
  7  8  1  0
  8  9  2  0
  9 10  1  0
  4 11  1  0
 11 12  1  0
 11 13  2  0
 10  6  1  0
M  ISO  3   1   1   3   3  12   2
V    1 *
V    3 *
V   12 *
M  END
>  <symbol>  (107) 
Thi

>  <m_Rgroups>  (107) 
[H],[OH],[H],None,None,None

>  <m_abbr>  (107) 
Thi

>  <m_name>  (107) 
3-thienylalanine

>  <m_type>  (107) 
aa

>  <m_subtype>  (107) 
natural

>  <m_chem_types>  (107) 
1:backbone_n,2:backbone_c,3:backbone_n_mod

$$$$

     RDKit          2D

 11 11  0  0  0  0  0  0  0  0999 V2000
   -0.5525   -1.6951    0.0000 R   0  0  0  0  0  0  0  0  0  0  0  0
   -0.3949   -0.7077    0.0000 N   0  0  0  0  0  0  0  0  0  0  0  0
   -1.1011    0.0003    0.0000 C   0  0  0  0  0  0  0  0  0  0  0  0
   -0.6459    0.8907    0.0000 C   0  0  0  0  0  0  0  0  0  0  0  0
   -1.0989    1.7823    0.0000 O   0  0  0  0  0  0  0  0  0  0  0  0
   -2.0973    1.8359    0.0000 R   0  0  0  0  0  0  0  0  0  0  0  0
    0.3415    0.7331    0.0000 C   0  0  0  0  0  0  0  0  0  0  0  0
    0.4967   -0.2547    0.0000 C   0  0  0  0  0  0  0  0  0  0  0  0
    1.3871   -0.7099    0.0000 C   0  0  0  0  0  0  0  0  0  0  0  0
    1.4385   -1.7085    0.0000 R   0  0  0  0  0  0  0  0  0  0  0  0
    2.2265   -0.1663    0.0000 O   0  0  0  0  0  0  0  0  0  0  0  0
  1  2  1  0
  2  3  1  0
  3  4  1  0
  4  5  1  1
  5  6  1  0
  4  7  1  0
  7  8  1  0
  8  9  1  1
  9 10  1  0
  9 11  2  0
  8  2  1  0
M  ISO  3   1   1   6   3  10   2
V    1 *
V    6 *
V   10 *
M  END
>  <symbol>  (108) 
aHyp

>  <m_Rgroups>  (108) 
[H],[OH],[H],None,None,None

>  <m_abbr>  (108) 
aHyp

>  <m_name>  (108) 
L-allo-4-hydroxyproline

>  <m_type>  (108) 
aa

>  <m_subtype>  (108) 
natural

>  <m_chem_types>  (108) 
1:backbone_n,2:backbone_c,3:hydroxyl

$$$$

     RDKit          2D

 11 10  0  0  0  0  0  0  0  0999 V2000
   -1.6743    0.1256    0.0000 R   0  0  0  0  0  0  0  0  0  0  0  0
   -0.8079    0.6248    0.0000 N   0  0  0  0  0  0  0  0  0  0  0  0
   -0.8071    1.6248    0.0000 R   0  0  0  0  0  0  0  0  0  0  0  0
    0.0577    0.1242    0.0000 C   0  0  0  0  0  0  0  0  0  0  0  0
    0.9241    0.6234    0.0000 C   0  0  0  0  0  0  0  0  0  0  0  0
    1.7897    0.1228    0.0000 R   0  0  0  0  0  0  0  0  0  0  0  0
    0.9249    1.6234    0.0000 O   0  0  0  0  0  0  0  0  0  0  0  0
    0.0569   -0.8758    0.0000 C   0  0  0  0  0  0  0  0  0  0  0  0
   -0.9431   -0.8750    0.0000 C   0  0  0  0  0  0  0  0  0  0  0  0
   -0.4439   -1.7414    0.0000 C   0  0  0  0  0  0  0  0  0  0  0  0
    0.9225   -1.3766    0.0000 C   0  0  0  0  0  0  0  0  0  0  0  0
  1  2  1  0
  2  3  1  0
  4  2  1  6
  4  5  1  0
  5  6  1  0
  5  7  2  0
  4  8  1  0
  8  9  1  0
  8 10  1  0
  8 11  1  0
M  ISO  3   1   1   3   3   6   2
V    1 *
V    3 *
V    6 *
M  END
>  <symbol>  (109) 
Ala_tBu

>  <m_Rgroups>  (109) 
[H],[OH],[H],None,None,None

>  <m_abbr>  (109) 
Ala_tBu

>  <m_name>  (109) 
3-Methylvaline

>  <m_type>  (109) 
aa

>  <m_subtype>  (109) 
natural

>  <m_chem_types>  (109) 
1:backbone_n,2:backbone_c,3:backbone_n_mod

$$$$

     RDKit          2D

 15 15  0  0  0  0  0  0  0  0999 V2000
   -1.2600   -2.8045    0.0000 R   0  0  0  0  0  0  0  0  0  0  0  0
   -1.2636   -1.8045    0.0000 N   0  0  0  0  0  0  0  0  0  0  0  0
   -2.1314   -1.3075    0.0000 R   0  0  0  0  0  0  0  0  0  0  0  0
   -0.3994   -1.3013    0.0000 C   0  0  0  0  0  0  0  0  0  0  0  0
   -0.4030   -0.3015    0.0000 C   0  0  0  0  0  0  0  0  0  0  0  0
    0.4612    0.2017    0.0000 C   0  0  0  0  0  0  0  0  0  0  0  0
    0.4576    1.2015    0.0000 C   0  0  0  0  0  0  0  0  0  0  0  0
   -0.4104    1.6985    0.0000 C   0  0  0  0  0  0  0  0  0  0  0  0
   -0.4138    2.6985    0.0000 C   0  0  0  0  0  0  0  0  0  0  0  0
    0.4504    3.2017    0.0000 C   0  0  0  0  0  0  0  0  0  0  0  0
    1.3182    2.7047    0.0000 C   0  0  0  0  0  0  0  0  0  0  0  0
    1.3216    1.7047    0.0000 C   0  0  0  0  0  0  0  0  0  0  0  0
    0.4684   -1.7983    0.0000 C   0  0  0  0  0  0  0  0  0  0  0  0
    0.4720   -2.7983    0.0000 R   0  0  0  0  0  0  0  0  0  0  0  0
    1.3326   -1.2951    0.0000 O   0  0  0  0  0  0  0  0  0  0  0  0
  1  2  1  0
  2  3  1  0
  2  4  1  0
  4  5  1  1
  5  6  1  0
  6  7  1  0
  7  8  2  0
  8  9  1  0
  9 10  2  0
 10 11  1  0
 11 12  2  0
  4 13  1  0
 13 14  1  0
 13 15  2  0
 12  7  1  0
M  ISO  3   1   1   3   3  14   2
V    1 *
V    3 *
V   14 *
M  END
>  <symbol>  (110) 
hPhe

>  <m_Rgroups>  (110) 
[H],[OH],[H],None,None,None

>  <m_abbr>  (110) 
hPhe

>  <m_name>  (110) 
Homophenylalanine

>  <m_type>  (110) 
aa

>  <m_subtype>  (110) 
natural

>  <m_chem_types>  (110) 
1:backbone_n,2:backbone_c,3:backbone_n_mod

$$$$

     RDKit          2D

 18 19  0  0  0  0  0  0  0  0999 V2000
   -1.5934   -2.8579    0.0000 R   0  0  0  0  0  0  0  0  0  0  0  0
   -1.5914   -1.8579    0.0000 N   0  0  0  0  0  0  0  0  0  0  0  0
   -2.4564   -1.3561    0.0000 R   0  0  0  0  0  0  0  0  0  0  0  0
   -0.7244   -1.3597    0.0000 C   0  0  0  0  0  0  0  0  0  0  0  0
   -0.7224   -0.3597    0.0000 C   0  0  0  0  0  0  0  0  0  0  0  0
    0.1448    0.1387    0.0000 C   0  0  0  0  0  0  0  0  0  0  0  0
    1.0096   -0.3631    0.0000 C   0  0  0  0  0  0  0  0  0  0  0  0
    1.8768    0.1351    0.0000 C   0  0  0  0  0  0  0  0  0  0  0  0
    1.8786    1.1351    0.0000 C   0  0  0  0  0  0  0  0  0  0  0  0
    1.0138    1.6369    0.0000 C   0  0  0  0  0  0  0  0  0  0  0  0
    1.0156    2.6367    0.0000 C   0  0  0  0  0  0  0  0  0  0  0  0
    0.1508    3.1387    0.0000 C   0  0  0  0  0  0  0  0  0  0  0  0
   -0.7164    2.6403    0.0000 C   0  0  0  0  0  0  0  0  0  0  0  0
   -0.7182    1.6403    0.0000 C   0  0  0  0  0  0  0  0  0  0  0  0
    0.1466    1.1385    0.0000 C   0  0  0  0  0  0  0  0  0  0  0  0
    0.1406   -1.8613    0.0000 C   0  0  0  0  0  0  0  0  0  0  0  0
    0.1386   -2.8613    0.0000 R   0  0  0  0  0  0  0  0  0  0  0  0
    1.0076   -1.3631    0.0000 O   0  0  0  0  0  0  0  0  0  0  0  0
  1  2  1  0
  2  3  1  0
  2  4  1  0
  4  5  1  6
  5  6  1  0
  6  7  2  0
  7  8  1  0
  8  9  2  0
  9 10  1  0
 10 11  2  0
 11 12  1  0
 12 13  2  0
 13 14  1  0
 14 15  2  0
  4 16  1  0
 16 17  1  0
 16 18  2  0
 15  6  1  0
 15 10  1  0
M  ISO  3   1   1   3   3  17   2
V    1 *
V    3 *
V   17 *
M  END
>  <symbol>  (111) 
D_1Nal

>  <m_Rgroups>  (111) 
[H],[OH],[H],None,None,None

>  <m_abbr>  (111) 
D_1Nal

>  <m_name>  (111) 
D-3-(1-naphthyl)-alanine

>  <m_type>  (111) 
aa

>  <m_subtype>  (111) 
natural

>  <m_chem_types>  (111) 
1:backbone_n,2:backbone_c,3:backbone_n_mod

$$$$

     RDKit          2D

 11 10  0  0  0  0  0  0  0  0999 V2000
   -0.9413    1.7290    0.0000 R   0  0  0  0  0  0  0  0  0  0  0  0
   -0.9433    0.7292    0.0000 N   0  0  0  0  0  0  0  0  0  0  0  0
   -1.8103    0.2308    0.0000 R   0  0  0  0  0  0  0  0  0  0  0  0
   -0.0783    0.2274    0.0000 C   0  0  0  0  0  0  0  0  0  0  0  0
    0.7887    0.7256    0.0000 C   0  0  0  0  0  0  0  0  0  0  0  0
    1.6537    0.2240    0.0000 R   0  0  0  0  0  0  0  0  0  0  0  0
    0.7907    1.7256    0.0000 O   0  0  0  0  0  0  0  0  0  0  0  0
   -0.0803   -0.7726    0.0000 C   0  0  0  0  0  0  0  0  0  0  0  0
   -0.9473   -1.2708    0.0000 C   0  0  0  0  0  0  0  0  0  0  0  0
    0.7847   -1.2742    0.0000 O   0  0  0  0  0  0  0  0  0  0  0  0
    0.7827   -2.2742    0.0000 R   0  0  0  0  0  0  0  0  0  0  0  0
  1  2  1  0
  2  3  1  0
  4  2  1  1
  4  5  1  0
  5  6  1  0
  5  7  2  0
  4  8  1  0
  8  9  1  6
  8 10  1  0
 10 11  1  0
M  ISO  4   1   1   3   3   6   2  11   4
V    1 *
V    3 *
V    6 *
V   11 *
M  END
>  <symbol>  (112) 
D_aThr

>  <m_Rgroups>  (112) 
[H],[OH],[H],[H],None,None

>  <m_abbr>  (112) 
D_aThr

>  <m_name>  (112) 
D-allo-Threonine

>  <m_type>  (112) 
aa

>  <m_subtype>  (112) 
natural

>  <m_chem_types>  (112) 
1:backbone_n,2:backbone_c,3:backbone_n_mod,4:hydroxyl

$$$$

     RDKit          2D

 14 14  0  0  0  0  0  0  0  0999 V2000
   -0.1314   -2.1423    0.0000 R   0  0  0  0  0  0  0  0  0  0  0  0
   -0.1278   -1.1425    0.0000 N   0  0  0  0  0  0  0  0  0  0  0  0
   -0.9920   -0.6393    0.0000 R   0  0  0  0  0  0  0  0  0  0  0  0
    0.7400   -0.6455    0.0000 C   0  0  0  0  0  0  0  0  0  0  0  0
    0.7436    0.3545    0.0000 C   0  0  0  0  0  0  0  0  0  0  0  0
   -0.1206    0.8575    0.0000 C   0  0  0  0  0  0  0  0  0  0  0  0
   -0.9884    0.3605    0.0000 C   0  0  0  0  0  0  0  0  0  0  0  0
   -1.8526    0.8637    0.0000 C   0  0  0  0  0  0  0  0  0  0  0  0
   -1.8492    1.8637    0.0000 C   0  0  0  0  0  0  0  0  0  0  0  0
   -0.9812    2.3607    0.0000 C   0  0  0  0  0  0  0  0  0  0  0  0
   -0.1172    1.8575    0.0000 C   0  0  0  0  0  0  0  0  0  0  0  0
    1.6042   -1.1487    0.0000 C   0  0  0  0  0  0  0  0  0  0  0  0
    1.6006   -2.1487    0.0000 R   0  0  0  0  0  0  0  0  0  0  0  0
    2.4720   -0.6517    0.0000 O   0  0  0  0  0  0  0  0  0  0  0  0
  1  2  1  0
  2  3  1  0
  2  4  1  0
  4  5  1  6
  5  6  1  0
  6  7  1  0
  7  8  1  0
  8  9  1  0
  9 10  1  0
 10 11  1  0
  4 12  1  0
 12 13  1  0
 12 14  2  0
 11  6  1  0
M  ISO  3   1   1   3   3  13   2
V    1 *
V    3 *
V   13 *
M  END
>  <symbol>  (113) 
D_Cha

>  <m_Rgroups>  (113) 
[H],[OH],[H],None,None,None

>  <m_abbr>  (113) 
D_Cha

>  <m_name>  (113) 
D-2-Amino-3-cyclohexyl-propionic acid

>  <m_type>  (113) 
aa

>  <m_subtype>  (113) 
natural

>  <m_chem_types>  (113) 
1:backbone_n,2:backbone_c,3:backbone_n_mod

$$$$

     RDKit          2D

 12 11  0  0  0  0  0  0  0  0999 V2000
   -0.8817    1.8239    0.0000 R   0  0  0  0  0  0  0  0  0  0  0  0
   -0.8837    0.8239    0.0000 N   0  0  0  0  0  0  0  0  0  0  0  0
   -1.7507    0.3257    0.0000 R   0  0  0  0  0  0  0  0  0  0  0  0
   -0.0187    0.3221    0.0000 C   0  0  0  0  0  0  0  0  0  0  0  0
    0.8483    0.8205    0.0000 C   0  0  0  0  0  0  0  0  0  0  0  0
    1.7133    0.3187    0.0000 R   0  0  0  0  0  0  0  0  0  0  0  0
    0.8503    1.8205    0.0000 O   0  0  0  0  0  0  0  0  0  0  0  0
   -0.0207   -0.6779    0.0000 C   0  0  0  0  0  0  0  0  0  0  0  0
   -1.0207   -0.6757    0.0000 C   0  0  0  0  0  0  0  0  0  0  0  0
   -0.5223   -1.5429    0.0000 C   0  0  0  0  0  0  0  0  0  0  0  0
    0.8443   -1.1795    0.0000 S   0  0  0  0  0  0  0  0  0  0  0  0
    0.8423   -2.1795    0.0000 R   0  0  0  0  0  0  0  0  0  0  0  0
  1  2  1  0
  2  3  1  0
  4  2  1  1
  4  5  1  0
  5  6  1  0
  5  7  2  0
  4  8  1  0
  8  9  1  0
  8 10  1  0
  8 11  1  0
 11 12  1  0
M  ISO  4   1   1   3   3   6   2  12   4
V    1 *
V    3 *
V    6 *
V   12 *
M  END
>  <symbol>  (114) 
D_Pen

>  <m_Rgroups>  (114) 
[H],[OH],[H],[H],None,None

>  <m_abbr>  (114) 
D_Pen

>  <m_name>  (114) 
D-penicillamine (3-mercaptovaline)

>  <m_type>  (114) 
aa

>  <m_subtype>  (114) 
natural

>  <m_chem_types>  (114) 
1:backbone_n,2:backbone_c,3:backbone_n_mod,4:thiol

$$$$

     RDKit          2D

 15 15  0  0  0  0  0  0  0  0999 V2000
    0.0494   -2.3001    0.0000 R   0  0  0  0  0  0  0  0  0  0  0  0
    0.0530   -1.3003    0.0000 N   0  0  0  0  0  0  0  0  0  0  0  0
   -0.8112   -0.7971    0.0000 R   0  0  0  0  0  0  0  0  0  0  0  0
    0.9208   -0.8033    0.0000 C   0  0  0  0  0  0  0  0  0  0  0  0
    0.9244    0.1967    0.0000 C   0  0  0  0  0  0  0  0  0  0  0  0
    0.0604    0.6997    0.0000 C   0  0  0  0  0  0  0  0  0  0  0  0
   -0.8076    0.2027    0.0000 C   0  0  0  0  0  0  0  0  0  0  0  0
   -1.6716    0.7059    0.0000 C   0  0  0  0  0  0  0  0  0  0  0  0
   -1.6682    1.7059    0.0000 C   0  0  0  0  0  0  0  0  0  0  0  0
   -2.5324    2.2091    0.0000 Cl  0  0  0  0  0  0  0  0  0  0  0  0
   -0.8004    2.2029    0.0000 C   0  0  0  0  0  0  0  0  0  0  0  0
    0.0638    1.6997    0.0000 C   0  0  0  0  0  0  0  0  0  0  0  0
    1.7850   -1.3065    0.0000 C   0  0  0  0  0  0  0  0  0  0  0  0
    1.7814   -2.3063    0.0000 R   0  0  0  0  0  0  0  0  0  0  0  0
    2.6528   -0.8095    0.0000 O   0  0  0  0  0  0  0  0  0  0  0  0
  1  2  1  0
  2  3  1  0
  2  4  1  0
  4  5  1  6
  5  6  1  0
  6  7  1  0
  7  8  2  0
  8  9  1  0
  9 10  1  0
  9 11  2  0
 11 12  1  0
  4 13  1  0
 13 14  1  0
 13 15  2  0
 12  6  2  0
M  ISO  3   1   1   3   3  14   2
V    1 *
V    3 *
V   14 *
M  END
>  <symbol>  (115) 
D_Phe_4Cl

>  <m_Rgroups>  (115) 
[H],[OH],[H],None,None,None

>  <m_abbr>  (115) 
D_Phe_4Cl

>  <m_name>  (115) 
4-Chloro-D-phenylalanine

>  <m_type>  (115) 
aa

>  <m_subtype>  (115) 
natural

>  <m_chem_types>  (115) 
1:backbone_n,2:backbone_c,3:backbone_n_mod

$$$$

     RDKit          2D

 16 16  0  0  0  0  0  0  0  0999 V2000
   -1.9428    2.8788    0.0000 R   0  0  0  0  0  0  0  0  0  0  0  0
   -1.9448    1.8788    0.0000 N   0  0  0  0  0  0  0  0  0  0  0  0
   -2.8118    1.3806    0.0000 R   0  0  0  0  0  0  0  0  0  0  0  0
   -1.0798    1.3772    0.0000 C   0  0  0  0  0  0  0  0  0  0  0  0
   -1.0818    0.3772    0.0000 C   0  0  0  0  0  0  0  0  0  0  0  0
   -0.2168   -0.1246    0.0000 O   0  0  0  0  0  0  0  0  0  0  0  0
   -0.2188   -1.1246    0.0000 C   0  0  0  0  0  0  0  0  0  0  0  0
    0.6462   -1.6262    0.0000 C   0  0  0  0  0  0  0  0  0  0  0  0
    0.6442   -2.6262    0.0000 C   0  0  0  0  0  0  0  0  0  0  0  0
    1.5092   -3.1280    0.0000 C   0  0  0  0  0  0  0  0  0  0  0  0
    2.3764   -2.6298    0.0000 C   0  0  0  0  0  0  0  0  0  0  0  0
    2.3782   -1.6298    0.0000 C   0  0  0  0  0  0  0  0  0  0  0  0
    1.5132   -1.1280    0.0000 C   0  0  0  0  0  0  0  0  0  0  0  0
   -0.2128    1.8754    0.0000 C   0  0  0  0  0  0  0  0  0  0  0  0
    0.6522    1.3736    0.0000 R   0  0  0  0  0  0  0  0  0  0  0  0
   -0.2108    2.8754    0.0000 O   0  0  0  0  0  0  0  0  0  0  0  0
  1  2  1  0
  2  3  1  0
  2  4  1  0
  4  5  1  1
  5  6  1  0
  6  7  1  0
  7  8  1  0
  8  9  2  0
  9 10  1  0
 10 11  2  0
 11 12  1  0
 12 13  2  0
  4 14  1  0
 14 15  1  0
 14 16  2  0
 13  8  1  0
M  ISO  3   1   1   3   3  15   2
V    1 *
V    3 *
V   15 *
M  END
>  <symbol>  (116) 
D_Ser_Bn

>  <m_Rgroups>  (116) 
[H],[OH],[H],None,None,None

>  <m_abbr>  (116) 
D_Ser_Bn

>  <m_name>  (116) 
O-Benzyl-D-serine

>  <m_type>  (116) 
aa

>  <m_subtype>  (116) 
natural

>  <m_chem_types>  (116) 
1:backbone_n,2:backbone_c,3:backbone_n_mod

$$$$

     RDKit          2D

 17 17  0  0  0  0  0  0  0  0999 V2000
    0.0530   -2.6177    0.0000 R   0  0  0  0  0  0  0  0  0  0  0  0
    0.0522   -1.6177    0.0000 N   0  0  0  0  0  0  0  0  0  0  0  0
   -0.8142   -1.1183    0.0000 R   0  0  0  0  0  0  0  0  0  0  0  0
    0.9178   -1.1169    0.0000 C   0  0  0  0  0  0  0  0  0  0  0  0
    0.9170   -0.1169    0.0000 C   0  0  0  0  0  0  0  0  0  0  0  0
    0.0506    0.3823    0.0000 N   0  0  0  0  0  0  0  0  0  0  0  0
   -0.8150   -0.1183    0.0000 C   0  0  0  0  0  0  0  0  0  0  0  0
   -1.6814    0.3809    0.0000 C   0  0  0  0  0  0  0  0  0  0  0  0
   -1.6822    1.3811    0.0000 C   0  0  0  0  0  0  0  0  0  0  0  0
   -2.5486    1.8803    0.0000 O   0  0  0  0  0  0  0  0  0  0  0  0
   -0.8166    1.8815    0.0000 N   0  0  0  0  0  0  0  0  0  0  0  0
   -0.8174    2.8817    0.0000 R   0  0  0  0  0  0  0  0  0  0  0  0
    0.0498    1.3823    0.0000 C   0  0  0  0  0  0  0  0  0  0  0  0
    0.9154    1.8831    0.0000 O   0  0  0  0  0  0  0  0  0  0  0  0
    1.7842   -1.6163    0.0000 C   0  0  0  0  0  0  0  0  0  0  0  0
    1.7850   -2.6163    0.0000 R   0  0  0  0  0  0  0  0  0  0  0  0
    2.6498   -1.1155    0.0000 O   0  0  0  0  0  0  0  0  0  0  0  0
  1  2  1  0
  2  3  1  0
  2  4  1  0
  4  5  1  1
  5  6  1  0
  6  7  1  0
  7  8  2  0
  8  9  1  0
  9 10  2  0
  9 11  1  0
 11 12  1  0
 11 13  1  0
 13 14  2  0
  4 15  1  0
 15 16  1  0
 15 17  2  0
 13  6  1  0
M  ISO  4   1   1   3   3  12   4  16   2
V    1 *
V    3 *
V   12 *
V   16 *
M  END
>  <symbol>  (117) 
Wil

>  <m_Rgroups>  (117) 
[H],[OH],[H],[H],None,None

>  <m_abbr>  (117) 
Wil

>  <m_name>  (117) 
Alpha-amino-2,4-dioxopyrimidinepropanoic acid

>  <m_type>  (117) 
aa

>  <m_subtype>  (117) 
natural

>  <m_chem_types>  (117) 
1:backbone_n,2:backbone_c,3:backbone_n_mod,4:aromatic_nh

$$$$

     RDKit          2D

  5  4  0  0  0  0  0  0  0  0999 V2000
   -1.0000    0.0008    0.0000 R   0  0  0  0  0  0  0  0  0  0  0  0
    0.0000    0.0000    0.0000 S   0  0  0  0  0  0  0  0  0  0  0  0
    1.0000   -0.0008    0.0000 C   0  0  0  0  0  0  0  0  0  0  0  0
    0.0008    1.0000    0.0000 O   0  0  0  0  0  0  0  0  0  0  0  0
   -0.0008   -1.0000    0.0000 O   0  0  0  0  0  0  0  0  0  0  0  0
  1  2  1  0
  2  3  1  0
  2  4  2  0
  2  5  2  0
M  ISO  1   1   2
V    1 *
M  END
>  <symbol>  (118) 
MsO

>  <m_Rgroups>  (118) 
None,[OH],None,None,None,None

>  <m_abbr>  (118) 
MsO

>  <m_name>  (118) 
Mesylate

>  <m_type>  (118) 
cap

>  <m_subtype>  (118) 
cap

>  <m_chem_types>  (118) 
2:backbone_c

$$$$

     RDKit          2D

 13 14  0  0  0  0  0  0  0  0999 V2000
   -0.1680    1.7363    0.0000 R   0  0  0  0  0  0  0  0  0  0  0  0
   -0.0136    0.7483    0.0000 N   0  0  0  0  0  0  0  0  0  0  0  0
    0.8766    0.2925    0.0000 C   0  0  0  0  0  0  0  0  0  0  0  0
    1.7684    0.7447    0.0000 C   0  0  0  0  0  0  0  0  0  0  0  0
    2.6060    0.1985    0.0000 R   0  0  0  0  0  0  0  0  0  0  0  0
    1.8228    1.7433    0.0000 O   0  0  0  0  0  0  0  0  0  0  0  0
    0.7180   -0.6947    0.0000 C   0  0  0  0  0  0  0  0  0  0  0  0
   -0.2700   -0.8493    0.0000 C   0  0  0  0  0  0  0  0  0  0  0  0
   -0.8162   -1.6867    0.0000 C   0  0  0  0  0  0  0  0  0  0  0  0
   -1.8148   -1.6323    0.0000 C   0  0  0  0  0  0  0  0  0  0  0  0
   -2.2670   -0.7405    0.0000 C   0  0  0  0  0  0  0  0  0  0  0  0
   -1.7206    0.0971    0.0000 C   0  0  0  0  0  0  0  0  0  0  0  0
   -0.7220    0.0427    0.0000 C   0  0  0  0  0  0  0  0  0  0  0  0
  1  2  1  0
  2  3  1  0
  3  4  1  6
  4  5  1  0
  4  6  2  0
  3  7  1  0
  8  7  1  6
  8  9  1  0
  9 10  1  0
 10 11  1  0
 11 12  1  0
 13 12  1  6
 13  2  1  0
 13  8  1  0
M  ISO  2   1   1   5   2
V    1 *
V    5 *
M  END
>  <symbol>  (119) 
Oic_3aS_7aS

>  <m_Rgroups>  (119) 
[H],[OH],None,None,None,None

>  <m_abbr>  (119) 
Oic_3aS_7aS

>  <m_name>  (119) 
Perhydroindolic acid

>  <m_type>  (119) 
aa

>  <m_subtype>  (119) 
natural

>  <m_chem_types>  (119) 
1:backbone_n,2:backbone_c

$$$$

     RDKit          2D

 10 10  0  0  0  0  0  0  0  0999 V2000
   -0.6114    1.4478    0.0000 R   0  0  0  0  0  0  0  0  0  0  0  0
   -0.6078    0.4478    0.0000 N   0  0  0  0  0  0  0  0  0  0  0  0
   -1.4720   -0.0552    0.0000 C   0  0  0  0  0  0  0  0  0  0  0  0
   -1.4684   -1.0552    0.0000 C   0  0  0  0  0  0  0  0  0  0  0  0
   -0.6006   -1.5522    0.0000 C   0  0  0  0  0  0  0  0  0  0  0  0
    0.2636   -1.0490    0.0000 C   0  0  0  0  0  0  0  0  0  0  0  0
    0.2600   -0.0490    0.0000 C   0  0  0  0  0  0  0  0  0  0  0  0
    1.1242    0.4540    0.0000 C   0  0  0  0  0  0  0  0  0  0  0  0
    1.9920   -0.0428    0.0000 R   0  0  0  0  0  0  0  0  0  0  0  0
    1.1206    1.4540    0.0000 O   0  0  0  0  0  0  0  0  0  0  0  0
  1  2  1  0
  2  3  1  0
  3  4  1  0
  4  5  1  0
  5  6  1  0
  6  7  1  0
  7  8  1  6
  8  9  1  0
  8 10  2  0
  7  2  1  0
M  ISO  2   1   1   9   2
V    1 *
V    9 *
M  END
>  <symbol>  (120) 
Pip

>  <m_Rgroups>  (120) 
[H],[OH],None,None,None,None

>  <m_abbr>  (120) 
Pip

>  <m_name>  (120) 
Pipecolic acid

>  <m_type>  (120) 
aa

>  <m_subtype>  (120) 
natural

>  <m_chem_types>  (120) 
1:backbone_n,2:backbone_c

$$$$

     RDKit          2D

 14 14  0  0  0  0  0  0  0  0999 V2000
   -0.1314   -2.1423    0.0000 R   0  0  0  0  0  0  0  0  0  0  0  0
   -0.1278   -1.1425    0.0000 N   0  0  0  0  0  0  0  0  0  0  0  0
   -0.9920   -0.6393    0.0000 R   0  0  0  0  0  0  0  0  0  0  0  0
    0.7400   -0.6455    0.0000 C   0  0  0  0  0  0  0  0  0  0  0  0
    0.7436    0.3545    0.0000 C   0  0  0  0  0  0  0  0  0  0  0  0
   -0.1206    0.8575    0.0000 C   0  0  0  0  0  0  0  0  0  0  0  0
   -0.9884    0.3605    0.0000 C   0  0  0  0  0  0  0  0  0  0  0  0
   -1.8526    0.8637    0.0000 C   0  0  0  0  0  0  0  0  0  0  0  0
   -1.8492    1.8637    0.0000 C   0  0  0  0  0  0  0  0  0  0  0  0
   -0.9812    2.3607    0.0000 N   0  0  0  0  0  0  0  0  0  0  0  0
   -0.1172    1.8575    0.0000 C   0  0  0  0  0  0  0  0  0  0  0  0
    1.6042   -1.1487    0.0000 C   0  0  0  0  0  0  0  0  0  0  0  0
    1.6006   -2.1487    0.0000 R   0  0  0  0  0  0  0  0  0  0  0  0
    2.4720   -0.6517    0.0000 O   0  0  0  0  0  0  0  0  0  0  0  0
  1  2  1  0
  2  3  1  0
  2  4  1  0
  4  5  1  1
  5  6  1  0
  6  7  2  0
  7  8  1  0
  8  9  2  0
  9 10  1  0
 10 11  2  0
  4 12  1  0
 12 13  1  0
 12 14  2  0
 11  6  1  0
M  ISO  3   1   1   3   3  13   2
V    1 *
V    3 *
V   13 *
M  END
>  <symbol>  (121) 
3Pal

>  <m_Rgroups>  (121) 
[H],[OH],[H],None,None,None

>  <m_abbr>  (121) 
3Pal

>  <m_name>  (121) 
3-(2-pyridyl)-alanine

>  <m_type>  (121) 
aa

>  <m_subtype>  (121) 
natural

>  <m_chem_types>  (121) 
1:backbone_n,2:backbone_c,3:backbone_n_mod

$$$$

     RDKit          2D

 14 14  0  0  0  0  0  0  0  0999 V2000
   -0.1314   -2.1423    0.0000 R   0  0  0  0  0  0  0  0  0  0  0  0
   -0.1278   -1.1425    0.0000 N   0  0  0  0  0  0  0  0  0  0  0  0
   -0.9920   -0.6393    0.0000 R   0  0  0  0  0  0  0  0  0  0  0  0
    0.7400   -0.6455    0.0000 C   0  0  0  0  0  0  0  0  0  0  0  0
    0.7436    0.3545    0.0000 C   0  0  0  0  0  0  0  0  0  0  0  0
   -0.1206    0.8575    0.0000 C   0  0  0  0  0  0  0  0  0  0  0  0
   -0.9884    0.3605    0.0000 C   0  0  0  0  0  0  0  0  0  0  0  0
   -1.8526    0.8637    0.0000 C   0  0  0  0  0  0  0  0  0  0  0  0
   -1.8492    1.8637    0.0000 N   0  0  0  0  0  0  0  0  0  0  0  0
   -0.9812    2.3607    0.0000 C   0  0  0  0  0  0  0  0  0  0  0  0
   -0.1172    1.8575    0.0000 C   0  0  0  0  0  0  0  0  0  0  0  0
    1.6042   -1.1487    0.0000 C   0  0  0  0  0  0  0  0  0  0  0  0
    1.6006   -2.1487    0.0000 R   0  0  0  0  0  0  0  0  0  0  0  0
    2.4720   -0.6517    0.0000 O   0  0  0  0  0  0  0  0  0  0  0  0
  1  2  1  0
  2  3  1  0
  2  4  1  0
  4  5  1  1
  5  6  1  0
  6  7  1  0
  7  8  2  0
  8  9  1  0
  9 10  2  0
 10 11  1  0
  4 12  1  0
 12 13  1  0
 12 14  2  0
 11  6  2  0
M  ISO  3   1   1   3   3  13   2
V    1 *
V    3 *
V   13 *
M  END
>  <symbol>  (122) 
4Pal

>  <m_Rgroups>  (122) 
[H],[OH],[H],None,None,None

>  <m_abbr>  (122) 
4Pal

>  <m_name>  (122) 
3-(4-Pyridyl)-alanine

>  <m_type>  (122) 
aa

>  <m_subtype>  (122) 
natural

>  <m_chem_types>  (122) 
1:backbone_n,2:backbone_c,3:backbone_n_mod

$$$$

     RDKit          2D

  9  8  0  0  0  0  0  0  0  0999 V2000
   -0.9596    1.3352    0.0000 R   0  0  0  0  0  0  0  0  0  0  0  0
   -0.9616    0.3352    0.0000 N   0  0  0  0  0  0  0  0  0  0  0  0
   -1.8286   -0.1630    0.0000 R   0  0  0  0  0  0  0  0  0  0  0  0
   -0.0966   -0.1664    0.0000 C   0  0  0  0  0  0  0  0  0  0  0  0
   -0.0986   -1.1664    0.0000 C   0  0  0  0  0  0  0  0  0  0  0  0
    0.7664   -1.6682    0.0000 C   0  0  0  0  0  0  0  0  0  0  0  0
    0.7704    0.3318    0.0000 C   0  0  0  0  0  0  0  0  0  0  0  0
    1.6354   -0.1700    0.0000 R   0  0  0  0  0  0  0  0  0  0  0  0
    0.7724    1.3318    0.0000 O   0  0  0  0  0  0  0  0  0  0  0  0
  1  2  1  0
  2  3  1  0
  2  4  1  0
  4  5  1  6
  5  6  1  0
  4  7  1  0
  7  8  1  0
  7  9  2  0
M  ISO  3   1   1   3   3   8   2
V    1 *
V    3 *
V    8 *
M  END
>  <symbol>  (123) 
Abu

>  <m_Rgroups>  (123) 
[H],[OH],[H],None,None,None

>  <m_abbr>  (123) 
Abu

>  <m_name>  (123) 
2-Aminobutanoic acid

>  <m_type>  (123) 
aa

>  <m_subtype>  (123) 
natural

>  <m_chem_types>  (123) 
1:backbone_n,2:backbone_c,3:backbone_n_mod

$$$$

     RDKit          2D

 14 13  0  0  0  0  0  0  0  0999 V2000
   -1.4790   -2.7172    0.0000 R   0  0  0  0  0  0  0  0  0  0  0  0
   -1.4812   -1.7172    0.0000 N   0  0  0  0  0  0  0  0  0  0  0  0
   -2.3482   -1.2190    0.0000 R   0  0  0  0  0  0  0  0  0  0  0  0
   -0.6162   -1.2156    0.0000 C   0  0  0  0  0  0  0  0  0  0  0  0
   -0.6182   -0.2156    0.0000 C   0  0  0  0  0  0  0  0  0  0  0  0
    0.2468    0.2862    0.0000 C   0  0  0  0  0  0  0  0  0  0  0  0
    0.2448    1.2862    0.0000 C   0  0  0  0  0  0  0  0  0  0  0  0
    1.1098    1.7878    0.0000 C   0  0  0  0  0  0  0  0  0  0  0  0
    1.1078    2.7878    0.0000 C   0  0  0  0  0  0  0  0  0  0  0  0
    1.9728    3.2896    0.0000 R   0  0  0  0  0  0  0  0  0  0  0  0
    0.2408    3.2860    0.0000 O   0  0  0  0  0  0  0  0  0  0  0  0
    0.2510   -1.7138    0.0000 C   0  0  0  0  0  0  0  0  0  0  0  0
    1.1160   -1.2120    0.0000 R   0  0  0  0  0  0  0  0  0  0  0  0
    0.2530   -2.7138    0.0000 O   0  0  0  0  0  0  0  0  0  0  0  0
  1  2  1  0
  2  3  1  0
  2  4  1  0
  4  5  1  1
  5  6  1  0
  6  7  1  0
  7  8  1  0
  8  9  1  0
  9 10  1  0
  9 11  2  0
  4 12  1  0
 12 13  1  0
 12 14  2  0
M  ISO  4   1   1   3   3  10   4  13   2
V    1 *
V    3 *
V   10 *
V   13 *
M  END
>  <symbol>  (124) 
Apm

>  <m_Rgroups>  (124) 
[H],[OH],[H],[OH],None,None

>  <m_abbr>  (124) 
Apm

>  <m_name>  (124) 
2-Aminopimelic acid

>  <m_type>  (124) 
aa

>  <m_subtype>  (124) 
natural

>  <m_chem_types>  (124) 
1:backbone_n,2:backbone_c,3:backbone_n_mod,4:carboxyl

$$$$

     RDKit          2D

 13 13  0  0  0  0  0  0  0  0999 V2000
   -0.8703   -2.1137    0.0000 R   0  0  0  0  0  0  0  0  0  0  0  0
   -0.8683   -1.1137    0.0000 N   0  0  0  0  0  0  0  0  0  0  0  0
   -1.7333   -0.6119    0.0000 R   0  0  0  0  0  0  0  0  0  0  0  0
   -0.0013   -0.6153    0.0000 C   0  0  0  0  0  0  0  0  0  0  0  0
    0.8637   -1.1171    0.0000 C   0  0  0  0  0  0  0  0  0  0  0  0
    0.8617   -2.1171    0.0000 R   0  0  0  0  0  0  0  0  0  0  0  0
    1.7309   -0.6189    0.0000 O   0  0  0  0  0  0  0  0  0  0  0  0
    0.0007    0.3845    0.0000 C   0  0  0  0  0  0  0  0  0  0  0  0
    0.8679    0.8829    0.0000 C   0  0  0  0  0  0  0  0  0  0  0  0
    0.8697    1.8827    0.0000 C   0  0  0  0  0  0  0  0  0  0  0  0
    0.0049    2.3847    0.0000 C   0  0  0  0  0  0  0  0  0  0  0  0
   -0.8623    1.8863    0.0000 C   0  0  0  0  0  0  0  0  0  0  0  0
   -0.8641    0.8863    0.0000 C   0  0  0  0  0  0  0  0  0  0  0  0
  1  2  1  0
  2  3  1  0
  4  2  1  1
  4  5  1  0
  5  6  1  0
  5  7  2  0
  4  8  1  0
  8  9  1  0
  9 10  1  0
 10 11  1  0
 11 12  1  0
 12 13  1  0
 13  8  1  0
M  ISO  3   1   1   3   3   6   2
V    1 *
V    3 *
V    6 *
M  END
>  <symbol>  (125) 
Chg

>  <m_Rgroups>  (125) 
[H],[OH],[H],None,None,None

>  <m_abbr>  (125) 
Chg

>  <m_name>  (125) 
Alpha-cyclohexylglycine

>  <m_type>  (125) 
aa

>  <m_subtype>  (125) 
natural

>  <m_chem_types>  (125) 
1:backbone_n,2:backbone_c,3:backbone_n_mod

$$$$

     RDKit          2D

 12 11  0  0  0  0  0  0  0  0999 V2000
   -1.1505    2.0855    0.0000 R   0  0  0  0  0  0  0  0  0  0  0  0
   -1.1525    1.0857    0.0000 N   0  0  0  0  0  0  0  0  0  0  0  0
   -2.0195    0.5873    0.0000 R   0  0  0  0  0  0  0  0  0  0  0  0
   -0.2875    0.5839    0.0000 C   0  0  0  0  0  0  0  0  0  0  0  0
   -0.2895   -0.4161    0.0000 C   0  0  0  0  0  0  0  0  0  0  0  0
    0.5755   -0.9177    0.0000 C   0  0  0  0  0  0  0  0  0  0  0  0
    0.5735   -1.9177    0.0000 N   0  0  0  0  0  0  0  0  0  0  0  0
    1.4385   -2.4195    0.0000 R   0  0  0  0  0  0  0  0  0  0  0  0
   -0.2935   -2.4161    0.0000 R   0  0  0  0  0  0  0  0  0  0  0  0
    0.5795    1.0821    0.0000 C   0  0  0  0  0  0  0  0  0  0  0  0
    1.4445    0.5805    0.0000 R   0  0  0  0  0  0  0  0  0  0  0  0
    0.5815    2.0821    0.0000 O   0  0  0  0  0  0  0  0  0  0  0  0
  1  2  1  0
  2  3  1  0
  2  4  1  0
  4  5  1  6
  5  6  1  0
  6  7  1  0
  7  8  1  0
  7  9  1  0
  4 10  1  0
 10 11  1  0
 10 12  2  0
M  ISO  5   1   1   3   3   8   4   9   5  11   2
V    1 *
V    3 *
V    8 *
V    9 *
V   11 *
M  END
>  <symbol>  (126) 
Dab

>  <m_Rgroups>  (126) 
[H],[OH],[H],[H],[H],None

>  <m_abbr>  (126) 
Dab

>  <m_name>  (126) 
2,4-diaminobutanoic acid

>  <m_type>  (126) 
aa

>  <m_subtype>  (126) 
natural

>  <m_chem_types>  (126) 
1:backbone_n,2:backbone_c,3:backbone_n_mod,4:amine_primary,5:amine_secondary

$$$$

     RDKit          2D

 11 10  0  0  0  0  0  0  0  0999 V2000
   -1.1775    1.6841    0.0000 R   0  0  0  0  0  0  0  0  0  0  0  0
   -1.1795    0.6841    0.0000 N   0  0  0  0  0  0  0  0  0  0  0  0
   -2.0465    0.1859    0.0000 R   0  0  0  0  0  0  0  0  0  0  0  0
   -0.3145    0.1825    0.0000 C   0  0  0  0  0  0  0  0  0  0  0  0
   -0.3165   -0.8175    0.0000 C   0  0  0  0  0  0  0  0  0  0  0  0
    0.5485   -1.3193    0.0000 N   0  0  0  0  0  0  0  0  0  0  0  0
    0.5465   -2.3193    0.0000 R   0  0  0  0  0  0  0  0  0  0  0  0
    1.4155   -0.8209    0.0000 R   0  0  0  0  0  0  0  0  0  0  0  0
    0.5525    0.6807    0.0000 C   0  0  0  0  0  0  0  0  0  0  0  0
    1.4175    0.1789    0.0000 R   0  0  0  0  0  0  0  0  0  0  0  0
    0.5545    1.6807    0.0000 O   0  0  0  0  0  0  0  0  0  0  0  0
  1  2  1  0
  2  3  1  0
  2  4  1  0
  4  5  1  6
  5  6  1  0
  6  7  1  0
  6  8  1  0
  4  9  1  0
  9 10  1  0
  9 11  2  0
M  ISO  5   1   1   3   3   7   4   8   5  10   2
V    1 *
V    3 *
V    7 *
V    8 *
V   10 *
M  END
>  <symbol>  (127) 
Dap

>  <m_Rgroups>  (127) 
[H],[OH],[H],[H],[H],None

>  <m_abbr>  (127) 
Dap

>  <m_name>  (127) 
2,3-diaminopropanoic acid

>  <m_type>  (127) 
aa

>  <m_subtype>  (127) 
natural

>  <m_chem_types>  (127) 
1:backbone_n,2:backbone_c,3:backbone_n_mod,4:amine_primary,5:amine_secondary

$$$$

     RDKit          2D

 14 14  0  0  0  0  0  0  0  0999 V2000
   -0.1314   -2.1423    0.0000 R   0  0  0  0  0  0  0  0  0  0  0  0
   -0.1278   -1.1425    0.0000 N   0  0  0  0  0  0  0  0  0  0  0  0
   -0.9920   -0.6393    0.0000 R   0  0  0  0  0  0  0  0  0  0  0  0
    0.7400   -0.6455    0.0000 C   0  0  0  0  0  0  0  0  0  0  0  0
    0.7436    0.3545    0.0000 C   0  0  0  0  0  0  0  0  0  0  0  0
   -0.1206    0.8575    0.0000 C   0  0  0  0  0  0  0  0  0  0  0  0
   -0.9884    0.3605    0.0000 C   0  0  0  0  0  0  0  0  0  0  0  0
   -1.8526    0.8637    0.0000 C   0  0  0  0  0  0  0  0  0  0  0  0
   -1.8492    1.8637    0.0000 C   0  0  0  0  0  0  0  0  0  0  0  0
   -0.9812    2.3607    0.0000 N   0  0  0  0  0  0  0  0  0  0  0  0
   -0.1172    1.8575    0.0000 C   0  0  0  0  0  0  0  0  0  0  0  0
    1.6042   -1.1487    0.0000 C   0  0  0  0  0  0  0  0  0  0  0  0
    1.6006   -2.1487    0.0000 R   0  0  0  0  0  0  0  0  0  0  0  0
    2.4720   -0.6517    0.0000 O   0  0  0  0  0  0  0  0  0  0  0  0
  1  2  1  0
  2  3  1  0
  2  4  1  0
  4  5  1  6
  5  6  1  0
  6  7  2  0
  7  8  1  0
  8  9  2  0
  9 10  1  0
 10 11  2  0
  4 12  1  0
 12 13  1  0
 12 14  2  0
 11  6  1  0
M  ISO  3   1   1   3   3  13   2
V    1 *
V    3 *
V   13 *
M  END
>  <symbol>  (128) 
D_3Pal

>  <m_Rgroups>  (128) 
[H],[OH],[H],None,None,None

>  <m_abbr>  (128) 
D_3Pal

>  <m_name>  (128) 
D-3-(2-pyridyl)-alanine

>  <m_type>  (128) 
aa

>  <m_subtype>  (128) 
natural

>  <m_chem_types>  (128) 
1:backbone_n,2:backbone_c,3:backbone_n_mod

$$$$

     RDKit          2D

 10  9  0  0  0  0  0  0  0  0999 V2000
   -1.8821   -0.1388    0.0000 R   0  0  0  0  0  0  0  0  0  0  0  0
   -1.0157    0.3606    0.0000 N   0  0  0  0  0  0  0  0  0  0  0  0
   -1.0149    1.3606    0.0000 R   0  0  0  0  0  0  0  0  0  0  0  0
   -0.1501   -0.1400    0.0000 C   0  0  0  0  0  0  0  0  0  0  0  0
   -0.6507   -1.0056    0.0000 C   0  0  0  0  0  0  0  0  0  0  0  0
    0.3493   -1.0064    0.0000 C   0  0  0  0  0  0  0  0  0  0  0  0
    1.3493   -1.0072    0.0000 C   0  0  0  0  0  0  0  0  0  0  0  0
    0.7163    0.3592    0.0000 C   0  0  0  0  0  0  0  0  0  0  0  0
    1.5819   -0.1414    0.0000 R   0  0  0  0  0  0  0  0  0  0  0  0
    0.7171    1.3592    0.0000 O   0  0  0  0  0  0  0  0  0  0  0  0
  1  2  1  0
  2  3  1  0
  2  4  1  0
  4  5  1  6
  4  6  1  0
  6  7  1  0
  4  8  1  0
  8  9  1  0
  8 10  2  0
M  ISO  3   1   1   3   3   9   2
V    1 *
V    3 *
V    9 *
M  END
>  <symbol>  (129) 
D_aMeAbu

>  <m_Rgroups>  (129) 
[H],[OH],[H],None,None,None

>  <m_abbr>  (129) 
D_aMeAbu

>  <m_name>  (129) 
D-Isovaline

>  <m_type>  (129) 
aa

>  <m_subtype>  (129) 
natural

>  <m_chem_types>  (129) 
1:backbone_n,2:backbone_c,3:backbone_n_mod

$$$$

     RDKit          2D

 13 13  0  0  0  0  0  0  0  0999 V2000
   -0.8703   -2.1137    0.0000 R   0  0  0  0  0  0  0  0  0  0  0  0
   -0.8683   -1.1137    0.0000 N   0  0  0  0  0  0  0  0  0  0  0  0
   -1.7333   -0.6119    0.0000 R   0  0  0  0  0  0  0  0  0  0  0  0
   -0.0013   -0.6153    0.0000 C   0  0  0  0  0  0  0  0  0  0  0  0
    0.8637   -1.1171    0.0000 C   0  0  0  0  0  0  0  0  0  0  0  0
    0.8617   -2.1171    0.0000 R   0  0  0  0  0  0  0  0  0  0  0  0
    1.7309   -0.6189    0.0000 O   0  0  0  0  0  0  0  0  0  0  0  0
    0.0007    0.3845    0.0000 C   0  0  0  0  0  0  0  0  0  0  0  0
    0.8679    0.8829    0.0000 C   0  0  0  0  0  0  0  0  0  0  0  0
    0.8697    1.8827    0.0000 C   0  0  0  0  0  0  0  0  0  0  0  0
    0.0049    2.3847    0.0000 C   0  0  0  0  0  0  0  0  0  0  0  0
   -0.8623    1.8863    0.0000 C   0  0  0  0  0  0  0  0  0  0  0  0
   -0.8641    0.8863    0.0000 C   0  0  0  0  0  0  0  0  0  0  0  0
  1  2  1  0
  2  3  1  0
  4  2  1  6
  4  5  1  0
  5  6  1  0
  5  7  2  0
  4  8  1  0
  8  9  1  0
  9 10  1  0
 10 11  1  0
 11 12  1  0
 12 13  1  0
 13  8  1  0
M  ISO  3   1   1   3   3   6   2
V    1 *
V    3 *
V    6 *
M  END
>  <symbol>  (130) 
D_Chg

>  <m_Rgroups>  (130) 
[H],[OH],[H],None,None,None

>  <m_abbr>  (130) 
D_Chg

>  <m_name>  (130) 
D-Alpha-cyclohexylglycine

>  <m_type>  (130) 
aa

>  <m_subtype>  (130) 
natural

>  <m_chem_types>  (130) 
1:backbone_n,2:backbone_c,3:backbone_n_mod

$$$$

     RDKit          2D

 17 16  0  0  0  0  0  0  0  0999 V2000
   -1.8784   -3.2095    0.0000 R   0  0  0  0  0  0  0  0  0  0  0  0
   -1.8804   -2.2095    0.0000 N   0  0  0  0  0  0  0  0  0  0  0  0
   -2.7474   -1.7113    0.0000 R   0  0  0  0  0  0  0  0  0  0  0  0
   -1.0154   -1.7079    0.0000 C   0  0  0  0  0  0  0  0  0  0  0  0
   -1.0174   -0.7079    0.0000 C   0  0  0  0  0  0  0  0  0  0  0  0
   -0.1524   -0.2061    0.0000 C   0  0  0  0  0  0  0  0  0  0  0  0
   -0.1544    0.7937    0.0000 C   0  0  0  0  0  0  0  0  0  0  0  0
    0.7106    1.2955    0.0000 N   0  0  0  0  0  0  0  0  0  0  0  0
    1.5776    0.7973    0.0000 R   0  0  0  0  0  0  0  0  0  0  0  0
    0.7086    2.2955    0.0000 C   0  0  0  0  0  0  0  0  0  0  0  0
   -0.1584    2.7937    0.0000 O   0  0  0  0  0  0  0  0  0  0  0  0
    1.5736    2.7971    0.0000 N   0  0  0  0  0  0  0  0  0  0  0  0
    1.5716    3.7971    0.0000 R   0  0  0  0  0  0  0  0  0  0  0  0
    2.4406    2.2989    0.0000 R   0  0  0  0  0  0  0  0  0  0  0  0
   -0.1484   -2.2061    0.0000 C   0  0  0  0  0  0  0  0  0  0  0  0
    0.7166   -1.7045    0.0000 R   0  0  0  0  0  0  0  0  0  0  0  0
   -0.1464   -3.2061    0.0000 O   0  0  0  0  0  0  0  0  0  0  0  0
  1  2  1  0
  2  3  1  0
  2  4  1  0
  4  5  1  6
  5  6  1  0
  6  7  1  0
  7  8  1  0
  8  9  1  0
  8 10  1  0
 10 11  2  0
 10 12  1  0
 12 13  1  0
 12 14  1  0
  4 15  1  0
 15 16  1  0
 15 17  2  0
M  ISO  6   1   1   3   3   9   5  13   4  14   6  16   2
V    1 *
V    3 *
V    9 *
V   13 *
V   14 *
V   16 *
M  END
>  <symbol>  (131) 
D_Cit

>  <m_Rgroups>  (131) 
[H],[OH],[H],[H],[H],[H]

>  <m_abbr>  (131) 
D_Cit

>  <m_name>  (131) 
D-Citrullin

>  <m_type>  (131) 
aa

>  <m_subtype>  (131) 
natural

>  <m_chem_types>  (131) 
1:backbone_n,2:backbone_c,3:backbone_n_mod,4:amine_primary,5:amide_nh,6:amine_secondary

$$$$

     RDKit          2D

 12 11  0  0  0  0  0  0  0  0999 V2000
   -1.1505    2.0855    0.0000 R   0  0  0  0  0  0  0  0  0  0  0  0
   -1.1525    1.0857    0.0000 N   0  0  0  0  0  0  0  0  0  0  0  0
   -2.0195    0.5873    0.0000 R   0  0  0  0  0  0  0  0  0  0  0  0
   -0.2875    0.5839    0.0000 C   0  0  0  0  0  0  0  0  0  0  0  0
   -0.2895   -0.4161    0.0000 C   0  0  0  0  0  0  0  0  0  0  0  0
    0.5755   -0.9177    0.0000 C   0  0  0  0  0  0  0  0  0  0  0  0
    0.5735   -1.9177    0.0000 N   0  0  0  0  0  0  0  0  0  0  0  0
    1.4385   -2.4195    0.0000 R   0  0  0  0  0  0  0  0  0  0  0  0
   -0.2935   -2.4161    0.0000 R   0  0  0  0  0  0  0  0  0  0  0  0
    0.5795    1.0821    0.0000 C   0  0  0  0  0  0  0  0  0  0  0  0
    1.4445    0.5805    0.0000 R   0  0  0  0  0  0  0  0  0  0  0  0
    0.5815    2.0821    0.0000 O   0  0  0  0  0  0  0  0  0  0  0  0
  1  2  1  0
  2  3  1  0
  2  4  1  0
  4  5  1  1
  5  6  1  0
  6  7  1  0
  7  8  1  0
  7  9  1  0
  4 10  1  0
 10 11  1  0
 10 12  2  0
M  ISO  5   1   1   3   3   8   4   9   5  11   2
V    1 *
V    3 *
V    8 *
V    9 *
V   11 *
M  END
>  <symbol>  (132) 
D_Dab

>  <m_Rgroups>  (132) 
[H],[OH],[H],[H],[H],None

>  <m_abbr>  (132) 
D_Dab

>  <m_name>  (132) 
D-2,4-diaminobutanoic acid

>  <m_type>  (132) 
aa

>  <m_subtype>  (132) 
natural

>  <m_chem_types>  (132) 
1:backbone_n,2:backbone_c,3:backbone_n_mod,4:amine_primary,5:amine_secondary

$$$$

     RDKit          2D

 10 10  0  0  0  0  0  0  0  0999 V2000
   -0.6114    1.4478    0.0000 R   0  0  0  0  0  0  0  0  0  0  0  0
   -0.6078    0.4478    0.0000 N   0  0  0  0  0  0  0  0  0  0  0  0
   -1.4720   -0.0552    0.0000 C   0  0  0  0  0  0  0  0  0  0  0  0
   -1.4684   -1.0552    0.0000 C   0  0  0  0  0  0  0  0  0  0  0  0
   -0.6006   -1.5522    0.0000 C   0  0  0  0  0  0  0  0  0  0  0  0
    0.2636   -1.0490    0.0000 C   0  0  0  0  0  0  0  0  0  0  0  0
    0.2600   -0.0490    0.0000 C   0  0  0  0  0  0  0  0  0  0  0  0
    1.1242    0.4540    0.0000 C   0  0  0  0  0  0  0  0  0  0  0  0
    1.9920   -0.0428    0.0000 R   0  0  0  0  0  0  0  0  0  0  0  0
    1.1206    1.4540    0.0000 O   0  0  0  0  0  0  0  0  0  0  0  0
  1  2  1  0
  2  3  1  0
  3  4  1  0
  4  5  1  0
  5  6  1  0
  6  7  1  0
  7  8  1  1
  8  9  1  0
  8 10  2  0
  7  2  1  0
M  ISO  2   1   1   9   2
V    1 *
V    9 *
M  END
>  <symbol>  (133) 
D_Pip

>  <m_Rgroups>  (133) 
[H],[OH],None,None,None,None

>  <m_abbr>  (133) 
D_Pip

>  <m_name>  (133) 
D-Pipecolic acid

>  <m_type>  (133) 
aa

>  <m_subtype>  (133) 
natural

>  <m_chem_types>  (133) 
1:backbone_n,2:backbone_c

$$$$

     RDKit          2D

 14 15  0  0  0  0  0  0  0  0999 V2000
   -0.1314    2.1423    0.0000 R   0  0  0  0  0  0  0  0  0  0  0  0
   -0.1278    1.1425    0.0000 N   0  0  0  0  0  0  0  0  0  0  0  0
   -0.9920    0.6393    0.0000 C   0  0  0  0  0  0  0  0  0  0  0  0
   -0.9884   -0.3607    0.0000 C   0  0  0  0  0  0  0  0  0  0  0  0
   -1.8526   -0.8637    0.0000 C   0  0  0  0  0  0  0  0  0  0  0  0
   -1.8490   -1.8637    0.0000 C   0  0  0  0  0  0  0  0  0  0  0  0
   -0.9812   -2.3605    0.0000 C   0  0  0  0  0  0  0  0  0  0  0  0
   -0.1170   -1.8575    0.0000 C   0  0  0  0  0  0  0  0  0  0  0  0
   -0.1206   -0.8575    0.0000 C   0  0  0  0  0  0  0  0  0  0  0  0
    0.7436   -0.3545    0.0000 C   0  0  0  0  0  0  0  0  0  0  0  0
    0.7400    0.6455    0.0000 C   0  0  0  0  0  0  0  0  0  0  0  0
    1.6042    1.1487    0.0000 C   0  0  0  0  0  0  0  0  0  0  0  0
    2.4720    0.6517    0.0000 R   0  0  0  0  0  0  0  0  0  0  0  0
    1.6006    2.1487    0.0000 O   0  0  0  0  0  0  0  0  0  0  0  0
  1  2  1  0
  2  3  1  0
  3  4  1  0
  4  5  2  0
  5  6  1  0
  6  7  2  0
  7  8  1  0
  8  9  2  0
  9 10  1  0
 10 11  1  0
 11 12  1  1
 12 13  1  0
 12 14  2  0
 11  2  1  0
  9  4  1  0
M  ISO  2   1   1  13   2
V    1 *
V   13 *
M  END
>  <symbol>  (134) 
D_Tic

>  <m_Rgroups>  (134) 
[H],[OH],None,None,None,None

>  <m_abbr>  (134) 
D_Tic

>  <m_name>  (134) 
D-1,2,3,4-tetrahydro-3-isoquinolinecarboxylic acid

>  <m_type>  (134) 
aa

>  <m_subtype>  (134) 
natural

>  <m_chem_types>  (134) 
1:backbone_n,2:backbone_c

$$$$

     RDKit          2D

 15 14  0  0  0  0  0  0  0  0999 V2000
   -1.7836    3.1035    0.0000 R   0  0  0  0  0  0  0  0  0  0  0  0
   -1.7856    2.1035    0.0000 N   0  0  0  0  0  0  0  0  0  0  0  0
   -2.6526    1.6053    0.0000 R   0  0  0  0  0  0  0  0  0  0  0  0
   -0.9206    1.6017    0.0000 C   0  0  0  0  0  0  0  0  0  0  0  0
   -0.9226    0.6017    0.0000 C   0  0  0  0  0  0  0  0  0  0  0  0
   -0.0576    0.1001    0.0000 C   0  0  0  0  0  0  0  0  0  0  0  0
   -0.0596   -0.8999    0.0000 C   0  0  0  0  0  0  0  0  0  0  0  0
    0.8054   -1.4017    0.0000 C   0  0  0  0  0  0  0  0  0  0  0  0
    0.8034   -2.4015    0.0000 C   0  0  0  0  0  0  0  0  0  0  0  0
    1.6684   -2.9033    0.0000 C   0  0  0  0  0  0  0  0  0  0  0  0
    1.6664   -3.9033    0.0000 C   0  0  0  0  0  0  0  0  0  0  0  0
    2.5314   -4.4049    0.0000 C   0  0  0  0  0  0  0  0  0  0  0  0
   -0.0534    2.1001    0.0000 C   0  0  0  0  0  0  0  0  0  0  0  0
    0.8116    1.5983    0.0000 R   0  0  0  0  0  0  0  0  0  0  0  0
   -0.0514    3.1001    0.0000 O   0  0  0  0  0  0  0  0  0  0  0  0
  1  2  1  0
  2  3  1  0
  2  4  1  0
  4  5  1  6
  5  6  1  0
  6  7  1  0
  7  8  1  0
  8  9  1  0
  9 10  1  0
 10 11  1  0
 11 12  1  0
  4 13  1  0
 13 14  1  0
 13 15  2  0
M  ISO  3   1   1   3   3  14   2
V    1 *
V    3 *
V   14 *
M  END
>  <symbol>  (135) 
Aca

>  <m_Rgroups>  (135) 
[H],[OH],[H],None,None,None

>  <m_abbr>  (135) 
Aca

>  <m_name>  (135) 
2-Aminocapric acid

>  <m_type>  (135) 
aa

>  <m_subtype>  (135) 
natural

>  <m_chem_types>  (135) 
1:backbone_n,2:backbone_c,3:backbone_n_mod

$$$$

     RDKit          2D

 14 15  0  0  0  0  0  0  0  0999 V2000
   -0.1314    2.1423    0.0000 R   0  0  0  0  0  0  0  0  0  0  0  0
   -0.1278    1.1425    0.0000 N   0  0  0  0  0  0  0  0  0  0  0  0
   -0.9920    0.6393    0.0000 C   0  0  0  0  0  0  0  0  0  0  0  0
   -0.9884   -0.3607    0.0000 C   0  0  0  0  0  0  0  0  0  0  0  0
   -1.8526   -0.8637    0.0000 C   0  0  0  0  0  0  0  0  0  0  0  0
   -1.8490   -1.8637    0.0000 C   0  0  0  0  0  0  0  0  0  0  0  0
   -0.9812   -2.3605    0.0000 C   0  0  0  0  0  0  0  0  0  0  0  0
   -0.1170   -1.8575    0.0000 C   0  0  0  0  0  0  0  0  0  0  0  0
   -0.1206   -0.8575    0.0000 C   0  0  0  0  0  0  0  0  0  0  0  0
    0.7436   -0.3545    0.0000 C   0  0  0  0  0  0  0  0  0  0  0  0
    0.7400    0.6455    0.0000 C   0  0  0  0  0  0  0  0  0  0  0  0
    1.6042    1.1487    0.0000 C   0  0  0  0  0  0  0  0  0  0  0  0
    2.4720    0.6517    0.0000 R   0  0  0  0  0  0  0  0  0  0  0  0
    1.6006    2.1487    0.0000 O   0  0  0  0  0  0  0  0  0  0  0  0
  1  2  1  0
  2  3  1  0
  3  4  1  0
  4  5  2  0
  5  6  1  0
  6  7  2  0
  7  8  1  0
  8  9  2  0
  9 10  1  0
 10 11  1  0
 11 12  1  6
 12 13  1  0
 12 14  2  0
 11  2  1  0
  9  4  1  0
M  ISO  2   1   1  13   2
V    1 *
V   13 *
M  END
>  <symbol>  (136) 
Tic

>  <m_Rgroups>  (136) 
[H],[OH],None,None,None,None

>  <m_abbr>  (136) 
Tic

>  <m_name>  (136) 
1,2,3,4-tetrahydro-3-isoquinolinecarboxylic acid

>  <m_type>  (136) 
aa

>  <m_subtype>  (136) 
natural

>  <m_chem_types>  (136) 
1:backbone_n,2:backbone_c

$$$$

     RDKit          2D

 13 12  0  0  0  0  0  0  0  0999 V2000
   -1.4608    2.3106    0.0000 R   0  0  0  0  0  0  0  0  0  0  0  0
   -1.4630    1.3106    0.0000 N   0  0  0  0  0  0  0  0  0  0  0  0
   -2.3300    0.8124    0.0000 R   0  0  0  0  0  0  0  0  0  0  0  0
   -0.5980    0.8088    0.0000 C   0  0  0  0  0  0  0  0  0  0  0  0
   -0.6000   -0.1910    0.0000 C   0  0  0  0  0  0  0  0  0  0  0  0
    0.2650   -0.6928    0.0000 C   0  0  0  0  0  0  0  0  0  0  0  0
    0.2630   -1.6928    0.0000 C   0  0  0  0  0  0  0  0  0  0  0  0
    1.1280   -2.1944    0.0000 C   0  0  0  0  0  0  0  0  0  0  0  0
    1.1260   -3.1944    0.0000 R   0  0  0  0  0  0  0  0  0  0  0  0
    1.9952   -1.6962    0.0000 O   0  0  0  0  0  0  0  0  0  0  0  0
    0.2692    1.3072    0.0000 C   0  0  0  0  0  0  0  0  0  0  0  0
    1.1342    0.8054    0.0000 R   0  0  0  0  0  0  0  0  0  0  0  0
    0.2712    2.3072    0.0000 O   0  0  0  0  0  0  0  0  0  0  0  0
  1  2  1  0
  2  3  1  0
  2  4  1  0
  4  5  1  6
  5  6  1  0
  6  7  1  0
  7  8  1  0
  8  9  1  0
  8 10  2  0
  4 11  1  0
 11 12  1  0
 11 13  2  0
M  ISO  4   1   1   3   3   9   4  12   2
V    1 *
V    3 *
V    9 *
V   12 *
M  END
>  <symbol>  (137) 
Aad

>  <m_Rgroups>  (137) 
[H],[OH],[H],[OH],None,None

>  <m_abbr>  (137) 
Aad

>  <m_name>  (137) 
2-Aminoadipic acid

>  <m_type>  (137) 
aa

>  <m_subtype>  (137) 
natural

>  <m_chem_types>  (137) 
1:backbone_n,2:backbone_c,3:backbone_n_mod,4:carboxyl

$$$$

     RDKit          2D

 17 16  0  0  0  0  0  0  0  0999 V2000
   -1.8784   -3.2095    0.0000 R   0  0  0  0  0  0  0  0  0  0  0  0
   -1.8804   -2.2095    0.0000 N   0  0  0  0  0  0  0  0  0  0  0  0
   -2.7474   -1.7113    0.0000 R   0  0  0  0  0  0  0  0  0  0  0  0
   -1.0154   -1.7079    0.0000 C   0  0  0  0  0  0  0  0  0  0  0  0
   -1.0174   -0.7079    0.0000 C   0  0  0  0  0  0  0  0  0  0  0  0
   -0.1524   -0.2061    0.0000 C   0  0  0  0  0  0  0  0  0  0  0  0
   -0.1544    0.7937    0.0000 C   0  0  0  0  0  0  0  0  0  0  0  0
    0.7106    1.2955    0.0000 N   0  0  0  0  0  0  0  0  0  0  0  0
    1.5776    0.7973    0.0000 R   0  0  0  0  0  0  0  0  0  0  0  0
    0.7086    2.2955    0.0000 C   0  0  0  0  0  0  0  0  0  0  0  0
   -0.1584    2.7937    0.0000 O   0  0  0  0  0  0  0  0  0  0  0  0
    1.5736    2.7971    0.0000 N   0  0  0  0  0  0  0  0  0  0  0  0
    1.5716    3.7971    0.0000 R   0  0  0  0  0  0  0  0  0  0  0  0
    2.4406    2.2989    0.0000 R   0  0  0  0  0  0  0  0  0  0  0  0
   -0.1484   -2.2061    0.0000 C   0  0  0  0  0  0  0  0  0  0  0  0
    0.7166   -1.7045    0.0000 R   0  0  0  0  0  0  0  0  0  0  0  0
   -0.1464   -3.2061    0.0000 O   0  0  0  0  0  0  0  0  0  0  0  0
  1  2  1  0
  2  3  1  0
  2  4  1  0
  4  5  1  1
  5  6  1  0
  6  7  1  0
  7  8  1  0
  8  9  1  0
  8 10  1  0
 10 11  2  0
 10 12  1  0
 12 13  1  0
 12 14  1  0
  4 15  1  0
 15 16  1  0
 15 17  2  0
M  ISO  6   1   1   3   3   9   5  13   4  14   6  16   2
V    1 *
V    3 *
V    9 *
V   13 *
V   14 *
V   16 *
M  END
>  <symbol>  (138) 
Cit

>  <m_Rgroups>  (138) 
[H],[OH],[H],[H],[H],[H]

>  <m_abbr>  (138) 
Cit

>  <m_name>  (138) 
Citrullin

>  <m_type>  (138) 
aa

>  <m_subtype>  (138) 
natural

>  <m_chem_types>  (138) 
1:backbone_n,2:backbone_c,3:backbone_n_mod,4:amine_primary,5:amide_nh,6:amine_secondary

$$$$

     RDKit          2D

  8  8  0  0  0  0  0  0  0  0999 V2000
   -1.2816    1.0838    0.0000 R   0  0  0  0  0  0  0  0  0  0  0  0
   -0.8964    0.1608    0.0000 N   0  0  0  0  0  0  0  0  0  0  0  0
   -1.2766   -0.7640    0.0000 C   0  0  0  0  0  0  0  0  0  0  0  0
   -0.3516   -1.1442    0.0000 C   0  0  0  0  0  0  0  0  0  0  0  0
    0.0286   -0.2194    0.0000 C   0  0  0  0  0  0  0  0  0  0  0  0
    0.9516    0.1658    0.0000 C   0  0  0  0  0  0  0  0  0  0  0  0
    1.7466   -0.4408    0.0000 R   0  0  0  0  0  0  0  0  0  0  0  0
    1.0794    1.1578    0.0000 O   0  0  0  0  0  0  0  0  0  0  0  0
  1  2  1  0
  2  3  1  0
  3  4  1  0
  4  5  1  0
  5  6  1  6
  6  7  1  0
  6  8  2  0
  5  2  1  0
M  ISO  2   1   1   7   2
V    1 *
V    7 *
M  END
>  <symbol>  (139) 
Aze

>  <m_Rgroups>  (139) 
[H],[OH],None,None,None,None

>  <m_abbr>  (139) 
Aze

>  <m_name>  (139) 
2-Carboxyazetidine

>  <m_type>  (139) 
aa

>  <m_subtype>  (139) 
natural

>  <m_chem_types>  (139) 
1:backbone_n,2:backbone_c

$$$$

     RDKit          2D

 11 11  0  0  0  0  0  0  0  0999 V2000
   -1.6613    0.3654    0.0000 R   0  0  0  0  0  0  0  0  0  0  0  0
   -0.6867    0.5912    0.0000 N   0  0  0  0  0  0  0  0  0  0  0  0
   -0.4023    1.5460    0.0000 R   0  0  0  0  0  0  0  0  0  0  0  0
   -0.0005   -0.1528    0.0000 C   0  0  0  0  0  0  0  0  0  0  0  0
    0.6849    0.5934    0.0000 C   0  0  0  0  0  0  0  0  0  0  0  0
    1.6601    0.3710    0.0000 R   0  0  0  0  0  0  0  0  0  0  0  0
    0.3971    1.5474    0.0000 O   0  0  0  0  0  0  0  0  0  0  0  0
   -0.8071   -0.7410    0.0000 C   0  0  0  0  0  0  0  0  0  0  0  0
   -0.4969   -1.6922    0.0000 C   0  0  0  0  0  0  0  0  0  0  0  0
    0.5025   -1.6898    0.0000 C   0  0  0  0  0  0  0  0  0  0  0  0
    0.8103   -0.7386    0.0000 C   0  0  0  0  0  0  0  0  0  0  0  0
  1  2  1  0
  2  3  1  0
  2  4  1  0
  4  5  1  0
  5  6  1  0
  5  7  2  0
  4  8  1  0
  8  9  1  0
  9 10  1  0
 10 11  1  0
 11  4  1  0
M  ISO  3   1   1   3   3   6   2
V    1 *
V    3 *
V    6 *
M  END
>  <symbol>  (140) 
Ac5c

>  <m_Rgroups>  (140) 
[H],[OH],[H],None,None,None

>  <m_abbr>  (140) 
Ac5c

>  <m_name>  (140) 
1-Amino-1-carboxycyclopentane

>  <m_type>  (140) 
aa

>  <m_subtype>  (140) 
natural

>  <m_chem_types>  (140) 
1:backbone_n,2:backbone_c,3:backbone_n_mod

$$$$

     RDKit          2D

 14 14  0  0  0  0  0  0  0  0999 V2000
   -0.1314   -2.1423    0.0000 R   0  0  0  0  0  0  0  0  0  0  0  0
   -0.1278   -1.1425    0.0000 N   0  0  0  0  0  0  0  0  0  0  0  0
   -0.9920   -0.6393    0.0000 R   0  0  0  0  0  0  0  0  0  0  0  0
    0.7400   -0.6455    0.0000 C   0  0  0  0  0  0  0  0  0  0  0  0
    0.7436    0.3545    0.0000 C   0  0  0  0  0  0  0  0  0  0  0  0
   -0.1206    0.8575    0.0000 C   0  0  0  0  0  0  0  0  0  0  0  0
   -0.1172    1.8575    0.0000 C   0  0  0  0  0  0  0  0  0  0  0  0
   -0.9812    2.3607    0.0000 C   0  0  0  0  0  0  0  0  0  0  0  0
   -1.8492    1.8637    0.0000 C   0  0  0  0  0  0  0  0  0  0  0  0
   -1.8526    0.8637    0.0000 C   0  0  0  0  0  0  0  0  0  0  0  0
   -0.9884    0.3605    0.0000 N   0  0  0  0  0  0  0  0  0  0  0  0
    1.6042   -1.1487    0.0000 C   0  0  0  0  0  0  0  0  0  0  0  0
    1.6006   -2.1487    0.0000 R   0  0  0  0  0  0  0  0  0  0  0  0
    2.4720   -0.6517    0.0000 O   0  0  0  0  0  0  0  0  0  0  0  0
  1  2  1  0
  2  3  1  0
  2  4  1  0
  4  5  1  6
  5  6  1  0
  6  7  2  0
  7  8  1  0
  8  9  2  0
  9 10  1  0
 10 11  2  0
  4 12  1  0
 12 13  1  0
 12 14  2  0
 11  6  1  0
M  ISO  3   1   1   3   3  13   2
V    1 *
V    3 *
V   13 *
M  END
>  <symbol>  (141) 
D_2Pal

>  <m_Rgroups>  (141) 
[H],[OH],[H],None,None,None

>  <m_abbr>  (141) 
D_2Pal

>  <m_name>  (141) 
D-3-(2-Pyridyl)-alanine

>  <m_type>  (141) 
aa

>  <m_subtype>  (141) 
natural

>  <m_chem_types>  (141) 
1:backbone_n,2:backbone_c,3:backbone_n_mod

$$$$

     RDKit          2D

  9  8  0  0  0  0  0  0  0  0999 V2000
   -0.9596    1.3352    0.0000 R   0  0  0  0  0  0  0  0  0  0  0  0
   -0.9616    0.3352    0.0000 N   0  0  0  0  0  0  0  0  0  0  0  0
   -1.8286   -0.1630    0.0000 R   0  0  0  0  0  0  0  0  0  0  0  0
   -0.0966   -0.1664    0.0000 C   0  0  0  0  0  0  0  0  0  0  0  0
   -0.0986   -1.1664    0.0000 C   0  0  0  0  0  0  0  0  0  0  0  0
    0.7664   -1.6682    0.0000 C   0  0  0  0  0  0  0  0  0  0  0  0
    0.7704    0.3318    0.0000 C   0  0  0  0  0  0  0  0  0  0  0  0
    1.6354   -0.1700    0.0000 R   0  0  0  0  0  0  0  0  0  0  0  0
    0.7724    1.3318    0.0000 O   0  0  0  0  0  0  0  0  0  0  0  0
  1  2  1  0
  2  3  1  0
  2  4  1  0
  4  5  1  1
  5  6  1  0
  4  7  1  0
  7  8  1  0
  7  9  2  0
M  ISO  3   1   1   3   3   8   2
V    1 *
V    3 *
V    8 *
M  END
>  <symbol>  (142) 
D_Abu

>  <m_Rgroups>  (142) 
[H],[OH],[H],None,None,None

>  <m_abbr>  (142) 
D_Abu

>  <m_name>  (142) 
D-2-aminobutanoic acid

>  <m_type>  (142) 
aa

>  <m_subtype>  (142) 
natural

>  <m_chem_types>  (142) 
1:backbone_n,2:backbone_c,3:backbone_n_mod

$$$$

     RDKit          2D

 11 10  0  0  0  0  0  0  0  0999 V2000
   -1.1775    1.6841    0.0000 R   0  0  0  0  0  0  0  0  0  0  0  0
   -1.1795    0.6841    0.0000 N   0  0  0  0  0  0  0  0  0  0  0  0
   -2.0465    0.1859    0.0000 R   0  0  0  0  0  0  0  0  0  0  0  0
   -0.3145    0.1825    0.0000 C   0  0  0  0  0  0  0  0  0  0  0  0
   -0.3165   -0.8175    0.0000 C   0  0  0  0  0  0  0  0  0  0  0  0
    0.5485   -1.3193    0.0000 N   0  0  0  0  0  0  0  0  0  0  0  0
    0.5465   -2.3193    0.0000 R   0  0  0  0  0  0  0  0  0  0  0  0
    1.4155   -0.8209    0.0000 R   0  0  0  0  0  0  0  0  0  0  0  0
    0.5525    0.6807    0.0000 C   0  0  0  0  0  0  0  0  0  0  0  0
    1.4175    0.1789    0.0000 R   0  0  0  0  0  0  0  0  0  0  0  0
    0.5545    1.6807    0.0000 O   0  0  0  0  0  0  0  0  0  0  0  0
  1  2  1  0
  2  3  1  0
  2  4  1  0
  4  5  1  1
  5  6  1  0
  6  7  1  0
  6  8  1  0
  4  9  1  0
  9 10  1  0
  9 11  2  0
M  ISO  5   1   1   3   3   7   4   8   5  10   2
V    1 *
V    3 *
V    7 *
V    8 *
V   10 *
M  END
>  <symbol>  (143) 
D_Dap

>  <m_Rgroups>  (143) 
[H],[OH],[H],[H],[H],None

>  <m_abbr>  (143) 
D_Dap

>  <m_name>  (143) 
D-2,3-diaminopropanoic acid

>  <m_type>  (143) 
aa

>  <m_subtype>  (143) 
natural

>  <m_chem_types>  (143) 
1:backbone_n,2:backbone_c,3:backbone_n_mod,4:amine_primary,5:amine_secondary

$$$$

     RDKit          2D

 15 14  0  0  0  0  0  0  0  0999 V2000
   -1.7838    2.9702    0.0000 R   0  0  0  0  0  0  0  0  0  0  0  0
   -1.7858    1.9702    0.0000 N   0  0  0  0  0  0  0  0  0  0  0  0
   -2.6528    1.4720    0.0000 R   0  0  0  0  0  0  0  0  0  0  0  0
   -0.9208    1.4684    0.0000 C   0  0  0  0  0  0  0  0  0  0  0  0
   -0.9228    0.4684    0.0000 C   0  0  0  0  0  0  0  0  0  0  0  0
   -0.0578   -0.0332    0.0000 C   0  0  0  0  0  0  0  0  0  0  0  0
   -0.0598   -1.0332    0.0000 C   0  0  0  0  0  0  0  0  0  0  0  0
    0.8052   -1.5350    0.0000 C   0  0  0  0  0  0  0  0  0  0  0  0
    0.8032   -2.5348    0.0000 C   0  0  0  0  0  0  0  0  0  0  0  0
    1.6682   -3.0366    0.0000 C   0  0  0  0  0  0  0  0  0  0  0  0
    1.6660   -4.0366    0.0000 R   0  0  0  0  0  0  0  0  0  0  0  0
    2.5352   -2.5384    0.0000 O   0  0  0  0  0  0  0  0  0  0  0  0
   -0.0538    1.9668    0.0000 C   0  0  0  0  0  0  0  0  0  0  0  0
    0.8112    1.4650    0.0000 R   0  0  0  0  0  0  0  0  0  0  0  0
   -0.0518    2.9668    0.0000 O   0  0  0  0  0  0  0  0  0  0  0  0
  1  2  1  0
  2  3  1  0
  2  4  1  0
  4  5  1  6
  5  6  1  0
  6  7  1  0
  7  8  1  0
  8  9  1  0
  9 10  1  0
 10 11  1  0
 10 12  2  0
  4 13  1  0
 13 14  1  0
 13 15  2  0
M  ISO  4   1   1   3   3  11   4  14   2
V    1 *
V    3 *
V   11 *
V   14 *
M  END
>  <symbol>  (144) 
Asu

>  <m_Rgroups>  (144) 
[H],[OH],[H],[OH],None,None

>  <m_abbr>  (144) 
Asu

>  <m_name>  (144) 
2-Aminosuberic acid

>  <m_type>  (144) 
aa

>  <m_subtype>  (144) 
natural

>  <m_chem_types>  (144) 
1:backbone_n,2:backbone_c,3:backbone_n_mod,4:carboxyl

$$$$

     RDKit          2D

 11 11  0  0  0  0  0  0  0  0999 V2000
   -2.9128    0.0558    0.0000 R   0  0  0  0  0  0  0  0  0  0  0  0
   -2.0450    0.5528    0.0000 C   0  0  0  0  0  0  0  0  0  0  0  0
   -2.0414    1.5528    0.0000 O   0  0  0  0  0  0  0  0  0  0  0  0
   -1.1808    0.0496    0.0000 O   0  0  0  0  0  0  0  0  0  0  0  0
   -0.3130    0.5466    0.0000 C   0  0  0  0  0  0  0  0  0  0  0  0
    0.5512    0.0434    0.0000 C   0  0  0  0  0  0  0  0  0  0  0  0
    1.4190    0.5404    0.0000 C   0  0  0  0  0  0  0  0  0  0  0  0
    2.2832    0.0372    0.0000 C   0  0  0  0  0  0  0  0  0  0  0  0
    2.2798   -0.9628    0.0000 C   0  0  0  0  0  0  0  0  0  0  0  0
    1.4118   -1.4596    0.0000 C   0  0  0  0  0  0  0  0  0  0  0  0
    0.5478   -0.9564    0.0000 C   0  0  0  0  0  0  0  0  0  0  0  0
  1  2  1  0
  2  3  2  0
  2  4  1  0
  4  5  1  0
  5  6  1  0
  6  7  2  0
  7  8  1  0
  8  9  2  0
  9 10  1  0
 10 11  2  0
 11  6  1  0
M  ISO  1   1   2
V    1 *
M  END
>  <symbol>  (145) 
Cbz

>  <m_Rgroups>  (145) 
None,[OH],None,None,None,None

>  <m_abbr>  (145) 
Cbz

>  <m_name>  (145) 
Carboxybenzyl

>  <m_type>  (145) 
cap

>  <m_subtype>  (145) 
cap

>  <m_chem_types>  (145) 
2:backbone_c

$$$$

     RDKit          2D

  3  2  0  0  0  0  0  0  0  0999 V2000
    0.8659   -0.1674    0.0000 R   0  0  0  0  0  0  0  0  0  0  0  0
    0.0003    0.3334    0.0000 C   0  0  0  0  0  0  0  0  0  0  0  0
   -0.8661   -0.1660    0.0000 C   0  0  0  0  0  0  0  0  0  0  0  0
  1  2  1  0
  2  3  1  0
M  ISO  1   1   2
V    1 *
M  END
>  <symbol>  (146) 
_Et

>  <m_Rgroups>  (146) 
None,[Br],None,None,None,None

>  <m_abbr>  (146) 
_Et

>  <m_name>  (146) 
C-Terminal ethyl

>  <m_type>  (146) 
cap

>  <m_subtype>  (146) 
cap

>  <m_chem_types>  (146) 
2:backbone_c

$$$$

     RDKit          2D

  4  3  0  0  0  0  0  0  0  0999 V2000
    1.2992    0.2490    0.0000 R   0  0  0  0  0  0  0  0  0  0  0  0
    0.4328   -0.2504    0.0000 N   0  0  0  0  0  0  0  0  0  0  0  0
   -0.4328    0.2504    0.0000 C   0  0  0  0  0  0  0  0  0  0  0  0
   -1.2992   -0.2490    0.0000 C   0  0  0  0  0  0  0  0  0  0  0  0
  1  2  1  0
  2  3  1  0
  3  4  1  0
M  ISO  1   1   1
V    1 *
M  END
>  <symbol>  (147) 
NHEt

>  <m_Rgroups>  (147) 
[H],None,None,None,None,None

>  <m_abbr>  (147) 
NHEt

>  <m_name>  (147) 
Ethanamine

>  <m_type>  (147) 
cap

>  <m_subtype>  (147) 
cap

>  <m_chem_types>  (147) 
1:backbone_n

$$$$

     RDKit          2D

  4  3  0  0  0  0  0  0  0  0999 V2000
    1.2992    0.2490    0.0000 R   0  0  0  0  0  0  0  0  0  0  0  0
    0.4328   -0.2504    0.0000 O   0  0  0  0  0  0  0  0  0  0  0  0
   -0.4328    0.2504    0.0000 C   0  0  0  0  0  0  0  0  0  0  0  0
   -1.2992   -0.2490    0.0000 C   0  0  0  0  0  0  0  0  0  0  0  0
  1  2  1  0
  2  3  1  0
  3  4  1  0
M  ISO  1   1   1
V    1 *
M  END
>  <symbol>  (148) 
OEt

>  <m_Rgroups>  (148) 
[H],None,None,None,None,None

>  <m_abbr>  (148) 
OEt

>  <m_name>  (148) 
Ethanol

>  <m_type>  (148) 
cap

>  <m_subtype>  (148) 
cap

>  <m_chem_types>  (148) 
1:backbone_n

$$$$

     RDKit          2D

  3  2  0  0  0  0  0  0  0  0999 V2000
    0.8659   -0.1674    0.0000 R   0  0  0  0  0  0  0  0  0  0  0  0
    0.0003    0.3334    0.0000 O   0  0  0  0  0  0  0  0  0  0  0  0
   -0.8661   -0.1660    0.0000 C   0  0  0  0  0  0  0  0  0  0  0  0
  1  2  1  0
  2  3  1  0
M  ISO  1   1   1
V    1 *
M  END
>  <symbol>  (149) 
_OMe

>  <m_Rgroups>  (149) 
[H],None,None,None,None,None

>  <m_abbr>  (149) 
_OMe

>  <m_name>  (149) 
C-Terminal methanol

>  <m_type>  (149) 
cap

>  <m_subtype>  (149) 
cap

>  <m_chem_types>  (149) 
1:backbone_n

$$$$

     RDKit          2D

  6  5  0  0  0  0  0  0  0  0999 V2000
   -1.4432   -0.1231    0.0000 R   0  0  0  0  0  0  0  0  0  0  0  0
   -0.5768   -0.6225    0.0000 O   0  0  0  0  0  0  0  0  0  0  0  0
    0.2888   -0.1217    0.0000 C   0  0  0  0  0  0  0  0  0  0  0  0
   -0.2120    0.7439    0.0000 C   0  0  0  0  0  0  0  0  0  0  0  0
    0.7880    0.7447    0.0000 C   0  0  0  0  0  0  0  0  0  0  0  0
    1.1552   -0.6211    0.0000 C   0  0  0  0  0  0  0  0  0  0  0  0
  1  2  1  0
  2  3  1  0
  3  4  1  0
  3  5  1  0
  3  6  1  0
M  ISO  1   1   1
V    1 *
M  END
>  <symbol>  (150) 
OtBu

>  <m_Rgroups>  (150) 
[H],None,None,None,None,None

>  <m_abbr>  (150) 
OtBu

>  <m_name>  (150) 
O-tert-Butyl

>  <m_type>  (150) 
cap

>  <m_subtype>  (150) 
cap

>  <m_chem_types>  (150) 
1:backbone_n

$$$$

     RDKit          2D

 11 11  0  0  0  0  0  0  0  0999 V2000
    2.0545    1.1687    0.0000 R   0  0  0  0  0  0  0  0  0  0  0  0
    1.1853    0.6743    0.0000 S   0  0  0  0  0  0  0  0  0  0  0  0
    0.6909    1.5435    0.0000 O   0  0  0  0  0  0  0  0  0  0  0  0
    1.6797   -0.1949    0.0000 O   0  0  0  0  0  0  0  0  0  0  0  0
    0.3161    0.1797    0.0000 C   0  0  0  0  0  0  0  0  0  0  0  0
   -0.5467    0.6853    0.0000 C   0  0  0  0  0  0  0  0  0  0  0  0
   -1.4159    0.1909    0.0000 C   0  0  0  0  0  0  0  0  0  0  0  0
   -1.4223   -0.8091    0.0000 C   0  0  0  0  0  0  0  0  0  0  0  0
   -2.2915   -1.3035    0.0000 C   0  0  0  0  0  0  0  0  0  0  0  0
   -0.5595   -1.3147    0.0000 C   0  0  0  0  0  0  0  0  0  0  0  0
    0.3097   -0.8201    0.0000 C   0  0  0  0  0  0  0  0  0  0  0  0
  1  2  1  0
  2  3  2  0
  2  4  2  0
  2  5  1  0
  5  6  1  0
  6  7  2  0
  7  8  1  0
  8  9  1  0
  8 10  2  0
 10 11  1  0
 11  5  2  0
M  ISO  1   1   2
V    1 *
M  END
>  <symbol>  (151) 
Tos

>  <m_Rgroups>  (151) 
None,[OH],None,None,None,None

>  <m_abbr>  (151) 
Tos

>  <m_name>  (151) 
Tosyl

>  <m_type>  (151) 
cap

>  <m_subtype>  (151) 
cap

>  <m_chem_types>  (151) 
2:backbone_c

$$$$

     RDKit          2D

  9  9  0  0  0  0  0  0  0  0999 V2000
   -0.9077    1.2931    0.0000 R   0  0  0  0  0  0  0  0  0  0  0  0
   -0.7499    0.3057    0.0000 N   0  0  0  0  0  0  0  0  0  0  0  0
   -1.4561   -0.4023    0.0000 C   0  0  0  0  0  0  0  0  0  0  0  0
   -1.0011   -1.2927    0.0000 S   0  0  0  0  0  0  0  0  0  0  0  0
   -0.0137   -1.1351    0.0000 C   0  0  0  0  0  0  0  0  0  0  0  0
    0.1415   -0.1473    0.0000 C   0  0  0  0  0  0  0  0  0  0  0  0
    1.0321    0.3079    0.0000 C   0  0  0  0  0  0  0  0  0  0  0  0
    1.8713   -0.2357    0.0000 R   0  0  0  0  0  0  0  0  0  0  0  0
    1.0833    1.3065    0.0000 O   0  0  0  0  0  0  0  0  0  0  0  0
  1  2  1  0
  2  3  1  0
  3  4  1  0
  4  5  1  0
  5  6  1  0
  6  7  1  1
  7  8  1  0
  7  9  2  0
  6  2  1  0
M  ISO  2   1   1   8   2
V    1 *
V    8 *
M  END
>  <symbol>  (152) 
D_Thz

>  <m_Rgroups>  (152) 
[H],[OH],None,None,None,None

>  <m_abbr>  (152) 
D_Thz

>  <m_name>  (152) 
(4S)-1,3-thiazolidine-4-carboxylic acid

>  <m_type>  (152) 
aa

>  <m_subtype>  (152) 
natural

>  <m_chem_types>  (152) 
1:backbone_n,2:backbone_c

$$$$

     RDKit          2D

  7  6  0  0  0  0  0  0  0  0999 V2000
    1.6088   -0.2112    0.0000 R   0  0  0  0  0  0  0  0  0  0  0  0
    0.7418    0.2872    0.0000 C   0  0  0  0  0  0  0  0  0  0  0  0
    0.7398    1.2872    0.0000 O   0  0  0  0  0  0  0  0  0  0  0  0
   -0.1232   -0.2146    0.0000 C   0  0  0  0  0  0  0  0  0  0  0  0
   -0.1212   -1.2146    0.0000 C   0  0  0  0  0  0  0  0  0  0  0  0
   -0.9904    0.2838    0.0000 S   0  0  0  0  0  0  0  0  0  0  0  0
   -1.8554   -0.2180    0.0000 R   0  0  0  0  0  0  0  0  0  0  0  0
  1  2  1  0
  2  3  2  0
  2  4  1  0
  4  5  1  6
  4  6  1  0
  6  7  1  0
M  ISO  2   1   2   7   3
V    1 *
V    7 *
M  END
>  <symbol>  (153) 
Mpa

>  <m_Rgroups>  (153) 
None,[OH],None,None,None,None

>  <m_abbr>  (153) 
Mpa

>  <m_name>  (153) 
(S)-2-Mercaptopropanoic acid

>  <m_type>  (153) 
cap

>  <m_subtype>  (153) 
cap

>  <m_chem_types>  (153) 
2:backbone_c

$$$$

     RDKit          2D

  6  5  0  0  0  0  0  0  0  0999 V2000
    1.5885   -0.4134    0.0000 R   0  0  0  0  0  0  0  0  0  0  0  0
    0.7215    0.0848    0.0000 C   0  0  0  0  0  0  0  0  0  0  0  0
    0.7195    1.0848    0.0000 O   0  0  0  0  0  0  0  0  0  0  0  0
   -0.1435   -0.4170    0.0000 C   0  0  0  0  0  0  0  0  0  0  0  0
   -1.0105    0.0814    0.0000 C   0  0  0  0  0  0  0  0  0  0  0  0
   -1.8755   -0.4204    0.0000 C   0  0  0  0  0  0  0  0  0  0  0  0
  1  2  1  0
  2  3  2  0
  2  4  1  0
  4  5  1  0
  5  6  1  0
M  ISO  1   1   2
V    1 *
M  END
>  <symbol>  (154) 
Bua

>  <m_Rgroups>  (154) 
None,[OH],None,None,None,None

>  <m_abbr>  (154) 
Bua

>  <m_name>  (154) 
Butanoic acid

>  <m_type>  (154) 
cap

>  <m_subtype>  (154) 
cap

>  <m_chem_types>  (154) 
2:backbone_c

$$$$

     RDKit          2D

  6  5  0  0  0  0  0  0  0  0999 V2000
    1.5885   -0.4134    0.0000 R   0  0  0  0  0  0  0  0  0  0  0  0
    0.7215    0.0848    0.0000 C   0  0  0  0  0  0  0  0  0  0  0  0
    0.7195    1.0848    0.0000 O   0  0  0  0  0  0  0  0  0  0  0  0
   -0.1435   -0.4170    0.0000 C   0  0  0  0  0  0  0  0  0  0  0  0
   -1.0105    0.0814    0.0000 O   0  0  0  0  0  0  0  0  0  0  0  0
   -1.8755   -0.4204    0.0000 R   0  0  0  0  0  0  0  0  0  0  0  0
  1  2  1  0
  2  3  2  0
  2  4  1  0
  4  5  1  0
  5  6  1  0
M  ISO  2   1   2   6   4
V    1 *
V    6 *
M  END
>  <symbol>  (155) 
Glc

>  <m_Rgroups>  (155) 
None,[OH],None,[H],None,None

>  <m_abbr>  (155) 
Glc

>  <m_name>  (155) 
Glycolic acid

>  <m_type>  (155) 
cap

>  <m_subtype>  (155) 
cap

>  <m_chem_types>  (155) 
2:backbone_c,4:hydroxyl

$$$$

     RDKit          2D

  7  6  0  0  0  0  0  0  0  0999 V2000
    1.9805   -0.4246    0.0000 R   0  0  0  0  0  0  0  0  0  0  0  0
    1.1133    0.0736    0.0000 C   0  0  0  0  0  0  0  0  0  0  0  0
    1.1113    1.0736    0.0000 O   0  0  0  0  0  0  0  0  0  0  0  0
    0.2483   -0.4280    0.0000 C   0  0  0  0  0  0  0  0  0  0  0  0
   -0.6187    0.0702    0.0000 C   0  0  0  0  0  0  0  0  0  0  0  0
   -1.4837   -0.4316    0.0000 S   0  0  0  0  0  0  0  0  0  0  0  0
   -2.3507    0.0668    0.0000 R   0  0  0  0  0  0  0  0  0  0  0  0
  1  2  1  0
  2  3  2  0
  2  4  1  0
  4  5  1  0
  5  6  1  0
  6  7  1  0
M  ISO  2   1   2   7   4
V    1 *
V    7 *
M  END
>  <symbol>  (156) 
deamino_Cys

>  <m_Rgroups>  (156) 
None,[OH],None,[H],None,None

>  <m_abbr>  (156) 
deamino_Cys

>  <m_name>  (156) 
Deamino-Cysteine

>  <m_type>  (156) 
cap

>  <m_subtype>  (156) 
cap

>  <m_chem_types>  (156) 
2:backbone_c,4:thiol

$$$$

     RDKit          2D

  9  8  0  0  0  0  0  0  0  0999 V2000
   -2.5984   -0.4980    0.0000 R   0  0  0  0  0  0  0  0  0  0  0  0
   -1.7320    0.0014    0.0000 N   0  0  0  0  0  0  0  0  0  0  0  0
   -1.7312    1.0014    0.0000 R   0  0  0  0  0  0  0  0  0  0  0  0
   -0.8664   -0.4994    0.0000 C   0  0  0  0  0  0  0  0  0  0  0  0
   -0.0000    0.0000    0.0000 C   0  0  0  0  0  0  0  0  0  0  0  0
    0.8656   -0.5006    0.0000 C   0  0  0  0  0  0  0  0  0  0  0  0
    1.7320   -0.0014    0.0000 C   0  0  0  0  0  0  0  0  0  0  0  0
    2.5976   -0.5020    0.0000 R   0  0  0  0  0  0  0  0  0  0  0  0
    1.7328    0.9986    0.0000 O   0  0  0  0  0  0  0  0  0  0  0  0
  1  2  1  0
  2  3  1  0
  2  4  1  0
  4  5  1  0
  5  6  1  0
  6  7  1  0
  7  8  1  0
  7  9  2  0
M  ISO  3   1   1   3   3   8   2
V    1 *
V    3 *
V    8 *
M  END
>  <symbol>  (157) 
deamino_Dab

>  <m_Rgroups>  (157) 
[H],[OH],[H],None,None,None

>  <m_abbr>  (157) 
deamino_Dab

>  <m_name>  (157) 
4-aminobutanoic acid

>  <m_type>  (157) 
aa

>  <m_subtype>  (157) 
cap

>  <m_chem_types>  (157) 
1:backbone_n,2:backbone_c,3:backbone_n_mod

$$$$

     RDKit          2D

  6  5  0  0  0  0  0  0  0  0999 V2000
    1.5889   -0.5801    0.0000 R   0  0  0  0  0  0  0  0  0  0  0  0
    0.7219   -0.0819    0.0000 C   0  0  0  0  0  0  0  0  0  0  0  0
    0.7197    0.9181    0.0000 O   0  0  0  0  0  0  0  0  0  0  0  0
   -0.1431   -0.5837    0.0000 C   0  0  0  0  0  0  0  0  0  0  0  0
   -1.0103   -0.0853    0.0000 C   0  0  0  0  0  0  0  0  0  0  0  0
   -1.8773    0.4129    0.0000 N   0  0  0  0  0  0  0  0  0  0  0  0
  1  2  1  0
  2  3  2  0
  2  4  1  0
  4  5  1  0
  5  6  3  0
M  ISO  1   1   2
V    1 *
M  END
>  <symbol>  (158) 
deamino_Gly_CN

>  <m_Rgroups>  (158) 
None,[OH],None,None,None,None

>  <m_abbr>  (158) 
deamino_Gly_CN

>  <m_name>  (158) 
2-cyanoacetic acid

>  <m_type>  (158) 
cap

>  <m_subtype>  (158) 
cap

>  <m_chem_types>  (158) 
2:backbone_c

$$$$

     RDKit          2D

  9  9  0  0  0  0  0  0  0  0999 V2000
   -2.2384   -0.7337    0.0000 R   0  0  0  0  0  0  0  0  0  0  0  0
   -1.3718   -0.2347    0.0000 C   0  0  0  0  0  0  0  0  0  0  0  0
   -1.3704    0.7653    0.0000 O   0  0  0  0  0  0  0  0  0  0  0  0
   -0.5064   -0.7357    0.0000 C   0  0  0  0  0  0  0  0  0  0  0  0
    0.3602   -0.2369    0.0000 C   0  0  0  0  0  0  0  0  0  0  0  0
    1.2732   -0.6445    0.0000 C   0  0  0  0  0  0  0  0  0  0  0  0
    1.9434    0.0979    0.0000 C   0  0  0  0  0  0  0  0  0  0  0  0
    1.4442    0.9643    0.0000 C   0  0  0  0  0  0  0  0  0  0  0  0
    0.4658    0.7577    0.0000 C   0  0  0  0  0  0  0  0  0  0  0  0
  1  2  1  0
  2  3  2  0
  2  4  1  0
  4  5  1  0
  5  6  1  0
  6  7  1  0
  7  8  1  0
  8  9  1  0
  9  5  1  0
M  ISO  1   1   2
V    1 *
M  END
>  <symbol>  (159) 
deamino_Gly_cPent

>  <m_Rgroups>  (159) 
None,[OH],None,None,None,None

>  <m_abbr>  (159) 
deamino_Gly_cPent

>  <m_name>  (159) 
2-cyclopentylacetic acid

>  <m_type>  (159) 
cap

>  <m_subtype>  (159) 
cap

>  <m_chem_types>  (159) 
2:backbone_c

$$$$

     RDKit          2D

  6  5  0  0  0  0  0  0  0  0999 V2000
    1.5885   -0.4134    0.0000 R   0  0  0  0  0  0  0  0  0  0  0  0
    0.7215    0.0848    0.0000 C   0  0  0  0  0  0  0  0  0  0  0  0
    0.7195    1.0848    0.0000 O   0  0  0  0  0  0  0  0  0  0  0  0
   -0.1435   -0.4170    0.0000 C   0  0  0  0  0  0  0  0  0  0  0  0
   -1.0105    0.0814    0.0000 O   0  0  0  0  0  0  0  0  0  0  0  0
   -1.8755   -0.4204    0.0000 R   0  0  0  0  0  0  0  0  0  0  0  0
  1  2  1  0
  2  3  2  0
  2  4  1  0
  4  5  1  0
  5  6  1  0
M  ISO  2   1   2   6   4
V    1 *
V    6 *
M  END
>  <symbol>  (160) 
deamino_Gly_OH

>  <m_Rgroups>  (160) 
None,[OH],None,[H],None,None

>  <m_abbr>  (160) 
deamino_Gly_OH

>  <m_name>  (160) 
2-hydroxyacetic acid

>  <m_type>  (160) 
cap

>  <m_subtype>  (160) 
cap

>  <m_chem_types>  (160) 
2:backbone_c,4:hydroxyl

$$$$

     RDKit          2D

  9  9  0  0  0  0  0  0  0  0999 V2000
   -2.2384   -0.7337    0.0000 R   0  0  0  0  0  0  0  0  0  0  0  0
   -1.3718   -0.2347    0.0000 C   0  0  0  0  0  0  0  0  0  0  0  0
   -1.3704    0.7653    0.0000 O   0  0  0  0  0  0  0  0  0  0  0  0
   -0.5064   -0.7357    0.0000 C   0  0  0  0  0  0  0  0  0  0  0  0
    0.3602   -0.2369    0.0000 C   0  0  0  0  0  0  0  0  0  0  0  0
    0.4658    0.7577    0.0000 C   0  0  0  0  0  0  0  0  0  0  0  0
    1.4442    0.9643    0.0000 C   0  0  0  0  0  0  0  0  0  0  0  0
    1.9434    0.0979    0.0000 C   0  0  0  0  0  0  0  0  0  0  0  0
    1.2732   -0.6445    0.0000 S   0  0  0  0  0  0  0  0  0  0  0  0
  1  2  1  0
  2  3  2  0
  2  4  1  0
  4  5  1  0
  5  6  2  0
  6  7  1  0
  7  8  2  0
  8  9  1  0
  9  5  1  0
M  ISO  1   1   2
V    1 *
M  END
>  <symbol>  (161) 
deamino_Gly_thien2yl

>  <m_Rgroups>  (161) 
None,[OH],None,None,None,None

>  <m_abbr>  (161) 
deamino_Gly_thien2yl

>  <m_name>  (161) 
2-(thiophen-2-yl)acetic acid

>  <m_type>  (161) 
cap

>  <m_subtype>  (161) 
cap

>  <m_chem_types>  (161) 
2:backbone_c

$$$$

     RDKit          2D

  6  5  0  0  0  0  0  0  0  0999 V2000
    1.5885   -0.4134    0.0000 R   0  0  0  0  0  0  0  0  0  0  0  0
    0.7215    0.0848    0.0000 C   0  0  0  0  0  0  0  0  0  0  0  0
    0.7195    1.0848    0.0000 O   0  0  0  0  0  0  0  0  0  0  0  0
   -0.1435   -0.4170    0.0000 C   0  0  0  0  0  0  0  0  0  0  0  0
   -1.0105    0.0814    0.0000 S   0  0  0  0  0  0  0  0  0  0  0  0
   -1.8755   -0.4204    0.0000 R   0  0  0  0  0  0  0  0  0  0  0  0
  1  2  1  0
  2  3  2  0
  2  4  1  0
  4  5  1  0
  5  6  1  0
M  ISO  2   1   2   6   4
V    1 *
V    6 *
M  END
>  <symbol>  (162) 
deamino_Ncy

>  <m_Rgroups>  (162) 
None,[OH],None,[H],None,None

>  <m_abbr>  (162) 
deamino_Ncy

>  <m_name>  (162) 
2-sulfanylacetic acid

>  <m_type>  (162) 
cap

>  <m_subtype>  (162) 
cap

>  <m_chem_types>  (162) 
2:backbone_c,4:thiol

$$$$

     RDKit          2D

 13 13  0  0  0  0  0  0  0  0999 V2000
   -1.9310    1.0400    0.0000 R   0  0  0  0  0  0  0  0  0  0  0  0
   -1.0654    0.5392    0.0000 C   0  0  0  0  0  0  0  0  0  0  0  0
   -0.1990    1.0386    0.0000 O   0  0  0  0  0  0  0  0  0  0  0  0
   -1.0662   -0.4608    0.0000 C   0  0  0  0  0  0  0  0  0  0  0  0
   -0.2006   -0.9614    0.0000 C   0  0  0  0  0  0  0  0  0  0  0  0
    0.6656   -0.4622    0.0000 C   0  0  0  0  0  0  0  0  0  0  0  0
    0.6664    0.5380    0.0000 C   0  0  0  0  0  0  0  0  0  0  0  0
    1.5330    1.0372    0.0000 C   0  0  0  0  0  0  0  0  0  0  0  0
    2.3986    0.5366    0.0000 C   0  0  0  0  0  0  0  0  0  0  0  0
    2.3978   -0.4636    0.0000 C   0  0  0  0  0  0  0  0  0  0  0  0
    1.5314   -0.9628    0.0000 C   0  0  0  0  0  0  0  0  0  0  0  0
   -1.9326   -0.9600    0.0000 O   0  0  0  0  0  0  0  0  0  0  0  0
   -2.7982   -0.4594    0.0000 R   0  0  0  0  0  0  0  0  0  0  0  0
  1  2  1  0
  2  3  2  0
  2  4  1  0
  4  5  1  0
  5  6  1  0
  6  7  2  0
  7  8  1  0
  8  9  2  0
  9 10  1  0
 10 11  2  0
  4 12  1  0
 12 13  1  0
 11  6  1  0
M  ISO  2   1   2  13   4
V    1 *
V   13 *
M  END
>  <symbol>  (163) 
deamino_Phe

>  <m_Rgroups>  (163) 
None,[OH],None,[H],None,None

>  <m_abbr>  (163) 
deamino_Phe

>  <m_name>  (163) 
Deamino-Phenylalanine

>  <m_type>  (163) 
cap

>  <m_subtype>  (163) 
cap

>  <m_chem_types>  (163) 
2:backbone_c,4:hydroxyl

$$$$

     RDKit          2D

 12 12  0  0  0  0  0  0  0  0999 V2000
   -2.7390   -0.9264    0.0000 R   0  0  0  0  0  0  0  0  0  0  0  0
   -1.8749   -0.4234    0.0000 C   0  0  0  0  0  0  0  0  0  0  0  0
   -1.8784    0.5766    0.0000 O   0  0  0  0  0  0  0  0  0  0  0  0
   -1.0071   -0.9202    0.0000 C   0  0  0  0  0  0  0  0  0  0  0  0
   -0.1429   -0.4172    0.0000 C   0  0  0  0  0  0  0  0  0  0  0  0
    0.7250   -0.9142    0.0000 C   0  0  0  0  0  0  0  0  0  0  0  0
    1.5892   -0.4110    0.0000 C   0  0  0  0  0  0  0  0  0  0  0  0
    2.4569   -0.9078    0.0000 C   0  0  0  0  0  0  0  0  0  0  0  0
    1.5858    0.5890    0.0000 C   0  0  0  0  0  0  0  0  0  0  0  0
    0.7177    1.0860    0.0000 C   0  0  0  0  0  0  0  0  0  0  0  0
    0.7142    2.0858    0.0000 C   0  0  0  0  0  0  0  0  0  0  0  0
   -0.1465    0.5828    0.0000 C   0  0  0  0  0  0  0  0  0  0  0  0
  1  2  1  0
  2  3  2  0
  2  4  1  0
  4  5  1  0
  5  6  2  0
  6  7  1  0
  7  8  1  0
  7  9  2  0
  9 10  1  0
 10 11  1  0
 10 12  2  0
 12  5  1  0
M  ISO  1   1   2
V    1 *
M  END
>  <symbol>  (164) 
deamino_Phg_35diMe

>  <m_Rgroups>  (164) 
None,[OH],None,None,None,None

>  <m_abbr>  (164) 
deamino_Phg_35diMe

>  <m_name>  (164) 
2-(3,5-dimethylphenyl)acetic acid

>  <m_type>  (164) 
cap

>  <m_subtype>  (164) 
cap

>  <m_chem_types>  (164) 
2:backbone_c

$$$$

     RDKit          2D

  8  7  0  0  0  0  0  0  0  0999 V2000
    2.1656   -0.2456    0.0000 R   0  0  0  0  0  0  0  0  0  0  0  0
    1.2986    0.2526    0.0000 C   0  0  0  0  0  0  0  0  0  0  0  0
    1.2966    1.2526    0.0000 O   0  0  0  0  0  0  0  0  0  0  0  0
    0.4336   -0.2492    0.0000 C   0  0  0  0  0  0  0  0  0  0  0  0
   -0.4336    0.2492    0.0000 C   0  0  0  0  0  0  0  0  0  0  0  0
   -1.2986   -0.2526    0.0000 C   0  0  0  0  0  0  0  0  0  0  0  0
   -2.1656    0.2456    0.0000 C   0  0  0  0  0  0  0  0  0  0  0  0
   -1.2966   -1.2526    0.0000 C   0  0  0  0  0  0  0  0  0  0  0  0
  1  2  1  0
  2  3  2  0
  2  4  1  0
  4  5  1  0
  5  6  1  0
  6  7  1  0
  6  8  1  0
M  ISO  1   1   2
V    1 *
M  END
>  <symbol>  (165) 
deamino_Leu

>  <m_Rgroups>  (165) 
None,[OH],None,None,None,None

>  <m_abbr>  (165) 
deamino_Leu

>  <m_name>  (165) 
Deamino-Leucine

>  <m_type>  (165) 
cap

>  <m_subtype>  (165) 
cap

>  <m_chem_types>  (165) 
2:backbone_c

$$$$

     RDKit          2D

  7  6  0  0  0  0  0  0  0  0999 V2000
    1.6088   -0.2112    0.0000 R   0  0  0  0  0  0  0  0  0  0  0  0
    0.7418    0.2872    0.0000 C   0  0  0  0  0  0  0  0  0  0  0  0
    0.7398    1.2872    0.0000 O   0  0  0  0  0  0  0  0  0  0  0  0
   -0.1232   -0.2146    0.0000 C   0  0  0  0  0  0  0  0  0  0  0  0
   -0.1212   -1.2146    0.0000 C   0  0  0  0  0  0  0  0  0  0  0  0
   -0.9904    0.2838    0.0000 O   0  0  0  0  0  0  0  0  0  0  0  0
   -1.8554   -0.2180    0.0000 R   0  0  0  0  0  0  0  0  0  0  0  0
  1  2  1  0
  2  3  2  0
  2  4  1  0
  4  5  1  1
  4  6  1  0
  6  7  1  0
M  ISO  2   1   2   7   4
V    1 *
V    7 *
M  END
>  <symbol>  (166) 
D_OAla

>  <m_Rgroups>  (166) 
None,[OH],None,[H],None,None

>  <m_abbr>  (166) 
D_OAla

>  <m_name>  (166) 
(2R)-2-hydroxypropanoic acid

>  <m_type>  (166) 
cap

>  <m_subtype>  (166) 
cap

>  <m_chem_types>  (166) 
2:backbone_c,4:hydroxyl

$$$$

     RDKit          2D

  7  6  0  0  0  0  0  0  0  0999 V2000
    1.6088   -0.2112    0.0000 R   0  0  0  0  0  0  0  0  0  0  0  0
    0.7418    0.2872    0.0000 C   0  0  0  0  0  0  0  0  0  0  0  0
    0.7398    1.2872    0.0000 O   0  0  0  0  0  0  0  0  0  0  0  0
   -0.1232   -0.2146    0.0000 C   0  0  0  0  0  0  0  0  0  0  0  0
   -0.1212   -1.2146    0.0000 C   0  0  0  0  0  0  0  0  0  0  0  0
   -0.9904    0.2838    0.0000 O   0  0  0  0  0  0  0  0  0  0  0  0
   -1.8554   -0.2180    0.0000 R   0  0  0  0  0  0  0  0  0  0  0  0
  1  2  1  0
  2  3  2  0
  2  4  1  0
  4  5  1  6
  4  6  1  0
  6  7  1  0
M  ISO  2   1   2   7   4
V    1 *
V    7 *
M  END
>  <symbol>  (167) 
L_OAla

>  <m_Rgroups>  (167) 
None,[OH],None,[H],None,None

>  <m_abbr>  (167) 
L_OAla

>  <m_name>  (167) 
(2S)-2-hydroxypropanoic acid

>  <m_type>  (167) 
cap

>  <m_subtype>  (167) 
cap

>  <m_chem_types>  (167) 
2:backbone_c,4:hydroxyl

$$$$

     RDKit          2D

  9  8  0  0  0  0  0  0  0  0999 V2000
    1.6354    0.1700    0.0000 R   0  0  0  0  0  0  0  0  0  0  0  0
    0.7684    0.6682    0.0000 C   0  0  0  0  0  0  0  0  0  0  0  0
    0.7664    1.6682    0.0000 O   0  0  0  0  0  0  0  0  0  0  0  0
   -0.0966    0.1664    0.0000 C   0  0  0  0  0  0  0  0  0  0  0  0
   -0.9636    0.6648    0.0000 O   0  0  0  0  0  0  0  0  0  0  0  0
   -1.8286    0.1630    0.0000 R   0  0  0  0  0  0  0  0  0  0  0  0
   -0.0946   -0.8334    0.0000 C   0  0  0  0  0  0  0  0  0  0  0  0
   -0.9596   -1.3352    0.0000 C   0  0  0  0  0  0  0  0  0  0  0  0
    0.7724   -1.3318    0.0000 C   0  0  0  0  0  0  0  0  0  0  0  0
  1  2  1  0
  2  3  2  0
  2  4  1  0
  4  5  1  6
  5  6  1  0
  4  7  1  0
  7  8  1  0
  7  9  1  0
M  ISO  2   1   2   6   4
V    1 *
V    6 *
M  END
>  <symbol>  (168) 
L_OVal

>  <m_Rgroups>  (168) 
None,[OH],None,[H],None,None

>  <m_abbr>  (168) 
L_OVal

>  <m_name>  (168) 
(2S)-2-hydroxy-3-methylbutanoic acid

>  <m_type>  (168) 
cap

>  <m_subtype>  (168) 
cap

>  <m_chem_types>  (168) 
2:backbone_c,4:hydroxyl

$$$$

     RDKit          2D

 10 10  0  0  0  0  0  0  0  0999 V2000
   -1.5614    0.6944    0.0000 R   0  0  0  0  0  0  0  0  0  0  0  0
   -1.5578   -0.3056    0.0000 N   0  0  0  0  0  0  0  0  0  0  0  0
   -2.4220   -0.8086    0.0000 O   0  0  0  0  0  0  0  0  0  0  0  0
   -0.6900   -0.8024    0.0000 C   0  0  0  0  0  0  0  0  0  0  0  0
    0.1742   -0.2994    0.0000 C   0  0  0  0  0  0  0  0  0  0  0  0
    1.0422   -0.7964    0.0000 C   0  0  0  0  0  0  0  0  0  0  0  0
    1.9062   -0.2932    0.0000 C   0  0  0  0  0  0  0  0  0  0  0  0
    1.9028    0.7068    0.0000 C   0  0  0  0  0  0  0  0  0  0  0  0
    1.0348    1.2038    0.0000 C   0  0  0  0  0  0  0  0  0  0  0  0
    0.1708    0.7006    0.0000 C   0  0  0  0  0  0  0  0  0  0  0  0
  1  2  1  0
  2  3  1  0
  2  4  1  0
  4  5  1  0
  5  6  2  0
  6  7  1  0
  7  8  2  0
  8  9  1  0
  9 10  2  0
 10  5  1  0
M  ISO  1   1   1
V    1 *
M  END
>  <symbol>  (169) 
NHBn_

>  <m_Rgroups>  (169) 
[H],None,None,None,None,None

>  <m_abbr>  (169) 
NHBn_

>  <m_name>  (169) 
N-Terminal 1-phenylmethanamine

>  <m_type>  (169) 
cap

>  <m_subtype>  (169) 
cap

>  <m_chem_types>  (169) 
1:backbone_n

$$$$

     RDKit          2D

  9  9  0  0  0  0  0  0  0  0999 V2000
   -1.9245    0.1096    0.0000 R   0  0  0  0  0  0  0  0  0  0  0  0
   -1.0589    0.6104    0.0000 C   0  0  0  0  0  0  0  0  0  0  0  0
   -1.0597    1.6104    0.0000 O   0  0  0  0  0  0  0  0  0  0  0  0
   -0.1925    0.1110    0.0000 C   0  0  0  0  0  0  0  0  0  0  0  0
   -0.1917   -0.8890    0.0000 C   0  0  0  0  0  0  0  0  0  0  0  0
    0.6747   -1.3884    0.0000 C   0  0  0  0  0  0  0  0  0  0  0  0
    1.5403   -0.8876    0.0000 C   0  0  0  0  0  0  0  0  0  0  0  0
    1.5395    0.1124    0.0000 C   0  0  0  0  0  0  0  0  0  0  0  0
    0.6731    0.6116    0.0000 C   0  0  0  0  0  0  0  0  0  0  0  0
  1  2  1  0
  2  3  2  0
  2  4  1  0
  4  5  2  0
  5  6  1  0
  6  7  2  0
  7  8  1  0
  8  9  2  0
  9  4  1  0
M  ISO  1   1   2
V    1 *
M  END
>  <symbol>  (170) 
Bz

>  <m_Rgroups>  (170) 
None,[OH],None,None,None,None

>  <m_abbr>  (170) 
Bz

>  <m_name>  (170) 
Benzaldehyde

>  <m_type>  (170) 
cap

>  <m_subtype>  (170) 
cap

>  <m_chem_types>  (170) 
2:backbone_c

$$$$

     RDKit          2D

  3  2  0  0  0  0  0  0  0  0999 V2000
    0.8659   -0.1674    0.0000 R   0  0  0  0  0  0  0  0  0  0  0  0
    0.0003    0.3334    0.0000 C   0  0  0  0  0  0  0  0  0  0  0  0
   -0.8661   -0.1660    0.0000 C   0  0  0  0  0  0  0  0  0  0  0  0
  1  2  1  0
  2  3  1  0
M  ISO  1   1   2
V    1 *
M  END
>  <symbol>  (171) 
Et_

>  <m_Rgroups>  (171) 
None,[Br],None,None,None,None

>  <m_abbr>  (171) 
Et_

>  <m_name>  (171) 
N-Terminal ethyl

>  <m_type>  (171) 
cap

>  <m_subtype>  (171) 
cap

>  <m_chem_types>  (171) 
2:backbone_c

$$$$

     RDKit          2D

  2  1  0  0  0  0  0  0  0  0999 V2000
   -0.5000    0.0000    0.0000 R   0  0  0  0  0  0  0  0  0  0  0  0
    0.5000    0.0000    0.0000 C   0  0  0  0  0  0  0  0  0  0  0  0
  1  2  1  0
M  ISO  1   1   2
V    1 *
M  END
>  <symbol>  (172) 
Me_

>  <m_Rgroups>  (172) 
None,[I],None,None,None,None

>  <m_abbr>  (172) 
Me_

>  <m_name>  (172) 
N-Terminal methyl

>  <m_type>  (172) 
cap

>  <m_subtype>  (172) 
cap

>  <m_chem_types>  (172) 
2:backbone_c

$$$$

     RDKit          2D

 17 17  0  0  0  0  0  0  0  0999 V2000
    0.3978   -2.7073    0.0000 R   0  0  0  0  0  0  0  0  0  0  0  0
    0.4014   -1.7073    0.0000 N   0  0  0  0  0  0  0  0  0  0  0  0
   -0.4628   -1.2043    0.0000 R   0  0  0  0  0  0  0  0  0  0  0  0
    1.2692   -1.2105    0.0000 C   0  0  0  0  0  0  0  0  0  0  0  0
    1.2728   -0.2105    0.0000 C   0  0  0  0  0  0  0  0  0  0  0  0
    0.4086    0.2925    0.0000 C   0  0  0  0  0  0  0  0  0  0  0  0
   -0.4592   -0.2043    0.0000 C   0  0  0  0  0  0  0  0  0  0  0  0
   -1.3234    0.2989    0.0000 C   0  0  0  0  0  0  0  0  0  0  0  0
   -1.3198    1.2989    0.0000 C   0  0  0  0  0  0  0  0  0  0  0  0
   -2.1840    1.8019    0.0000 O   0  0  0  0  0  0  0  0  0  0  0  0
   -2.1804    2.8019    0.0000 C   0  0  0  0  0  0  0  0  0  0  0  0
   -3.0446    3.3049    0.0000 C   0  0  0  0  0  0  0  0  0  0  0  0
   -0.4520    1.7957    0.0000 C   0  0  0  0  0  0  0  0  0  0  0  0
    0.4122    1.2925    0.0000 C   0  0  0  0  0  0  0  0  0  0  0  0
    2.1334   -1.7135    0.0000 C   0  0  0  0  0  0  0  0  0  0  0  0
    2.1298   -2.7135    0.0000 R   0  0  0  0  0  0  0  0  0  0  0  0
    3.0012   -1.2167    0.0000 O   0  0  0  0  0  0  0  0  0  0  0  0
  1  2  1  0
  2  3  1  0
  2  4  1  0
  4  5  1  6
  5  6  1  0
  6  7  1  0
  7  8  2  0
  8  9  1  0
  9 10  1  0
 10 11  1  0
 11 12  1  0
  9 13  2  0
 13 14  1  0
  4 15  1  0
 15 16  1  0
 15 17  2  0
 14  6  2  0
M  ISO  3   1   1   3   3  16   2
V    1 *
V    3 *
V   16 *
M  END
>  <symbol>  (173) 
D_Tyr_Et

>  <m_Rgroups>  (173) 
[H],[OH],[H],None,None,None

>  <m_abbr>  (173) 
D_Tyr_Et

>  <m_name>  (173) 
(2R)-2-amino-3-(4-ethoxyphenyl)propanoic acid

>  <m_type>  (173) 
aa

>  <m_subtype>  (173) 
natural

>  <m_chem_types>  (173) 
1:backbone_n,2:backbone_c,3:backbone_n_mod

$$$$

     RDKit          2D

 16 15  0  0  0  0  0  0  0  0999 V2000
   -1.7798    3.1598    0.0000 R   0  0  0  0  0  0  0  0  0  0  0  0
   -1.7818    2.1598    0.0000 N   0  0  0  0  0  0  0  0  0  0  0  0
   -2.6488    1.6614    0.0000 R   0  0  0  0  0  0  0  0  0  0  0  0
   -0.9168    1.6580    0.0000 C   0  0  0  0  0  0  0  0  0  0  0  0
   -0.9188    0.6580    0.0000 C   0  0  0  0  0  0  0  0  0  0  0  0
   -0.0538    0.1564    0.0000 C   0  0  0  0  0  0  0  0  0  0  0  0
   -0.0558   -0.8436    0.0000 C   0  0  0  0  0  0  0  0  0  0  0  0
    0.8092   -1.3454    0.0000 C   0  0  0  0  0  0  0  0  0  0  0  0
    0.8072   -2.3454    0.0000 N   0  0  0  0  0  0  0  0  0  0  0  0
   -0.0598   -2.8436    0.0000 R   0  0  0  0  0  0  0  0  0  0  0  0
    1.6722   -2.8470    0.0000 C   0  0  0  0  0  0  0  0  0  0  0  0
    1.6702   -3.8470    0.0000 C   0  0  0  0  0  0  0  0  0  0  0  0
    2.5392   -2.3488    0.0000 O   0  0  0  0  0  0  0  0  0  0  0  0
   -0.0498    2.1562    0.0000 C   0  0  0  0  0  0  0  0  0  0  0  0
    0.8152    1.6546    0.0000 R   0  0  0  0  0  0  0  0  0  0  0  0
   -0.0478    3.1562    0.0000 O   0  0  0  0  0  0  0  0  0  0  0  0
  1  2  1  0
  2  3  1  0
  2  4  1  0
  4  5  1  6
  5  6  1  0
  6  7  1  0
  7  8  1  0
  8  9  1  0
  9 10  1  0
  9 11  1  0
 11 12  1  0
 11 13  2  0
  4 14  1  0
 14 15  1  0
 14 16  2  0
M  ISO  4   1   1   3   3  10   4  15   2
V    1 *
V    3 *
V   10 *
V   15 *
M  END
>  <symbol>  (174) 
Lys_Ac

>  <m_Rgroups>  (174) 
[H],[OH],[H],[H],None,None

>  <m_abbr>  (174) 
Lys_Ac

>  <m_name>  (174) 
(2S)-2-amino-6-acetamidohexanoic acid

>  <m_type>  (174) 
aa

>  <m_subtype>  (174) 
natural

>  <m_chem_types>  (174) 
1:backbone_n,2:backbone_c,3:backbone_n_mod,4:amide_nh

$$$$

     RDKit          2D

  3  2  0  0  0  0  0  0  0  0999 V2000
    0.8659   -0.1674    0.0000 R   0  0  0  0  0  0  0  0  0  0  0  0
    0.0003    0.3334    0.0000 O   0  0  0  0  0  0  0  0  0  0  0  0
   -0.8661   -0.1660    0.0000 C   0  0  0  0  0  0  0  0  0  0  0  0
  1  2  1  0
  2  3  1  0
M  ISO  1   1   1
V    1 *
M  END
>  <symbol>  (175) 
OMe_

>  <m_Rgroups>  (175) 
[H],None,None,None,None,None

>  <m_abbr>  (175) 
OMe_

>  <m_name>  (175) 
N-Terminal methanol

>  <m_type>  (175) 
cap

>  <m_subtype>  (175) 
cap

>  <m_chem_types>  (175) 
1:backbone_n

$$$$

     RDKit          2D

 12 11  0  0  0  0  0  0  0  0999 V2000
   -1.2952    1.9193    0.0000 R   0  0  0  0  0  0  0  0  0  0  0  0
   -1.2972    0.9193    0.0000 N   0  0  0  0  0  0  0  0  0  0  0  0
   -2.1642    0.4211    0.0000 R   0  0  0  0  0  0  0  0  0  0  0  0
   -0.4322    0.4175    0.0000 C   0  0  0  0  0  0  0  0  0  0  0  0
   -0.4342   -0.5825    0.0000 C   0  0  0  0  0  0  0  0  0  0  0  0
    0.4308   -1.0841    0.0000 C   0  0  0  0  0  0  0  0  0  0  0  0
    1.2978   -0.5859    0.0000 O   0  0  0  0  0  0  0  0  0  0  0  0
    0.4288   -2.0841    0.0000 O   0  0  0  0  0  0  0  0  0  0  0  0
    1.2938   -2.5859    0.0000 C   0  0  0  0  0  0  0  0  0  0  0  0
    0.4348    0.9159    0.0000 C   0  0  0  0  0  0  0  0  0  0  0  0
    1.2998    0.4141    0.0000 R   0  0  0  0  0  0  0  0  0  0  0  0
    0.4368    1.9157    0.0000 O   0  0  0  0  0  0  0  0  0  0  0  0
  1  2  1  0
  2  3  1  0
  2  4  1  0
  4  5  1  6
  5  6  1  0
  6  7  2  0
  6  8  1  0
  8  9  1  0
  4 10  1  0
 10 11  1  0
 10 12  2  0
M  ISO  3   1   1   3   3  11   2
V    1 *
V    3 *
V   11 *
M  END
>  <symbol>  (176) 
Asp_OMe

>  <m_Rgroups>  (176) 
[H],[OH],[H],None,None,None

>  <m_abbr>  (176) 
Asp_OMe

>  <m_name>  (176) 
(2S)-2-amino-4-methoxy-4-oxobutanoic acid

>  <m_type>  (176) 
aa

>  <m_subtype>  (176) 
natural

>  <m_chem_types>  (176) 
1:backbone_n,2:backbone_c,3:backbone_n_mod

$$$$

     RDKit          2D

 15 14  0  0  0  0  0  0  0  0999 V2000
    0.4055   -1.6331    0.0000 R   0  0  0  0  0  0  0  0  0  0  0  0
   -0.4609   -1.1337    0.0000 N   0  0  0  0  0  0  0  0  0  0  0  0
   -1.3267   -1.6345    0.0000 R   0  0  0  0  0  0  0  0  0  0  0  0
   -0.4617   -0.1337    0.0000 C   0  0  0  0  0  0  0  0  0  0  0  0
   -1.3281    0.3655    0.0000 C   0  0  0  0  0  0  0  0  0  0  0  0
   -2.1937   -0.1351    0.0000 C   0  0  0  0  0  0  0  0  0  0  0  0
   -3.0601    0.3641    0.0000 C   0  0  0  0  0  0  0  0  0  0  0  0
   -2.1929   -1.1351    0.0000 C   0  0  0  0  0  0  0  0  0  0  0  0
    0.4039    0.3669    0.0000 C   0  0  0  0  0  0  0  0  0  0  0  0
    1.2703   -0.1323    0.0000 C   0  0  0  0  0  0  0  0  0  0  0  0
    2.1359    0.3683    0.0000 C   0  0  0  0  0  0  0  0  0  0  0  0
    3.0023   -0.1309    0.0000 R   0  0  0  0  0  0  0  0  0  0  0  0
    2.1351    1.3683    0.0000 O   0  0  0  0  0  0  0  0  0  0  0  0
    0.4031    1.3669    0.0000 O   0  0  0  0  0  0  0  0  0  0  0  0
    1.2687    1.8677    0.0000 R   0  0  0  0  0  0  0  0  0  0  0  0
  1  2  1  0
  2  3  1  0
  2  4  1  0
  4  5  1  0
  5  6  1  0
  6  7  1  0
  6  8  1  0
  4  9  1  0
  9 10  1  0
 10 11  1  0
 11 12  1  0
 11 13  2  0
  9 14  1  0
 14 15  1  0
M  ISO  4   1   1   3   3  12   2  15   4
V    1 *
V    3 *
V   12 *
V   15 *
M  END
>  <symbol>  (177) 
Sta_3xi4xi

>  <m_Rgroups>  (177) 
[H],[OH],[H],[H],None,None

>  <m_abbr>  (177) 
Sta_3xi4xi

>  <m_name>  (177) 
4-amino-3-hydroxy-6-methylheptanoic acid

>  <m_type>  (177) 
aa

>  <m_subtype>  (177) 
natural

>  <m_chem_types>  (177) 
1:backbone_n,2:backbone_c,3:backbone_n_mod,4:hydroxyl

$$$$

     RDKit          2D

 16 16  0  0  0  0  0  0  0  0999 V2000
   -2.0007    2.4078    0.0000 R   0  0  0  0  0  0  0  0  0  0  0  0
   -2.0015    1.4078    0.0000 N   0  0  0  0  0  0  0  0  0  0  0  0
   -2.8679    0.9086    0.0000 R   0  0  0  0  0  0  0  0  0  0  0  0
   -1.1359    0.9072    0.0000 C   0  0  0  0  0  0  0  0  0  0  0  0
   -1.1367   -0.0928    0.0000 C   0  0  0  0  0  0  0  0  0  0  0  0
   -0.2713   -0.5934    0.0000 C   0  0  0  0  0  0  0  0  0  0  0  0
   -0.2721   -1.5936    0.0000 C   0  0  0  0  0  0  0  0  0  0  0  0
    0.5937   -2.0942    0.0000 C   0  0  0  0  0  0  0  0  0  0  0  0
    1.4601   -1.5950    0.0000 C   0  0  0  0  0  0  0  0  0  0  0  0
    2.3257   -2.0956    0.0000 O   0  0  0  0  0  0  0  0  0  0  0  0
    3.1921   -1.5962    0.0000 C   0  0  0  0  0  0  0  0  0  0  0  0
    1.4609   -0.5948    0.0000 C   0  0  0  0  0  0  0  0  0  0  0  0
    0.5953   -0.0942    0.0000 C   0  0  0  0  0  0  0  0  0  0  0  0
   -0.2695    1.4064    0.0000 C   0  0  0  0  0  0  0  0  0  0  0  0
    0.5961    0.9058    0.0000 R   0  0  0  0  0  0  0  0  0  0  0  0
   -0.2687    2.4064    0.0000 O   0  0  0  0  0  0  0  0  0  0  0  0
  1  2  1  0
  2  3  1  0
  2  4  1  0
  4  5  2  3
  5  6  1  0
  6  7  1  0
  7  8  2  0
  8  9  1  0
  9 10  1  0
 10 11  1  0
  9 12  2  0
 12 13  1  0
  4 14  1  0
 14 15  1  0
 14 16  2  0
 13  6  2  0
M  ISO  3   1   1   3   3  15   2
V    1 *
V    3 *
V   15 *
M  END
>  <symbol>  (178) 
Tyr_ab_dehydroMe

>  <m_Rgroups>  (178) 
[H],[OH],[H],None,None,None

>  <m_abbr>  (178) 
Tyr_ab_dehydroMe

>  <m_name>  (178) 
2-amino-3-(4-methoxyphenyl)prop-2-enoic acid

>  <m_type>  (178) 
aa

>  <m_subtype>  (178) 
natural

>  <m_chem_types>  (178) 
1:backbone_n,2:backbone_c,3:backbone_n_mod

$$$$

     RDKit          2D

 18 18  0  0  0  0  0  0  0  0999 V2000
   -1.0092   -1.4730    0.0000 R   0  0  0  0  0  0  0  0  0  0  0  0
   -0.1436   -0.9724    0.0000 N   0  0  0  0  0  0  0  0  0  0  0  0
    0.7228   -1.4718    0.0000 R   0  0  0  0  0  0  0  0  0  0  0  0
   -0.1444    0.0276    0.0000 C   0  0  0  0  0  0  0  0  0  0  0  0
    0.7212    0.5282    0.0000 C   0  0  0  0  0  0  0  0  0  0  0  0
    1.5876    0.0290    0.0000 C   0  0  0  0  0  0  0  0  0  0  0  0
    1.5884   -0.9710    0.0000 C   0  0  0  0  0  0  0  0  0  0  0  0
    2.4548   -1.4702    0.0000 C   0  0  0  0  0  0  0  0  0  0  0  0
    3.3204   -0.9696    0.0000 C   0  0  0  0  0  0  0  0  0  0  0  0
    3.3196    0.0304    0.0000 C   0  0  0  0  0  0  0  0  0  0  0  0
    2.4532    0.5296    0.0000 C   0  0  0  0  0  0  0  0  0  0  0  0
   -1.0108    0.5270    0.0000 C   0  0  0  0  0  0  0  0  0  0  0  0
   -1.8764    0.0262    0.0000 C   0  0  0  0  0  0  0  0  0  0  0  0
   -2.7428    0.5256    0.0000 C   0  0  0  0  0  0  0  0  0  0  0  0
   -3.6084    0.0248    0.0000 R   0  0  0  0  0  0  0  0  0  0  0  0
   -2.7436    1.5256    0.0000 O   0  0  0  0  0  0  0  0  0  0  0  0
   -1.0116    1.5270    0.0000 O   0  0  0  0  0  0  0  0  0  0  0  0
   -1.8780    2.0262    0.0000 R   0  0  0  0  0  0  0  0  0  0  0  0
  1  2  1  0
  2  3  1  0
  2  4  1  0
  4  5  1  6
  5  6  1  0
  6  7  2  0
  7  8  1  0
  8  9  2  0
  9 10  1  0
 10 11  2  0
  4 12  1  0
 12 13  1  1
 13 14  1  0
 14 15  1  0
 14 16  2  0
 12 17  1  0
 17 18  1  0
 11  6  1  0
M  ISO  4   1   1   3   3  15   2  18   4
V    1 *
V    3 *
V   15 *
V   18 *
M  END
>  <symbol>  (179) 
App

>  <m_Rgroups>  (179) 
[H],[OH],[H],[H],None,None

>  <m_abbr>  (179) 
App

>  <m_name>  (179) 
gamma-amino-beta-hydroxybenzenepentanoic acid

>  <m_type>  (179) 
aa

>  <m_subtype>  (179) 
natural

>  <m_chem_types>  (179) 
1:backbone_n,2:backbone_c,3:backbone_n_mod,4:hydroxyl

$$$$

     RDKit          2D

 18 18  0  0  0  0  0  0  0  0999 V2000
    0.0037    1.8333    0.0000 R   0  0  0  0  0  0  0  0  0  0  0  0
   -0.8633    1.3349    0.0000 N   0  0  0  0  0  0  0  0  0  0  0  0
   -1.7283    1.8367    0.0000 R   0  0  0  0  0  0  0  0  0  0  0  0
   -0.8653    0.3351    0.0000 C   0  0  0  0  0  0  0  0  0  0  0  0
   -0.0003   -0.1667    0.0000 C   0  0  0  0  0  0  0  0  0  0  0  0
    0.8667    0.3315    0.0000 C   0  0  0  0  0  0  0  0  0  0  0  0
    1.7315   -0.1701    0.0000 C   0  0  0  0  0  0  0  0  0  0  0  0
    1.7297   -1.1701    0.0000 C   0  0  0  0  0  0  0  0  0  0  0  0
    2.5947   -1.6719    0.0000 C   0  0  0  0  0  0  0  0  0  0  0  0
    3.4617   -1.1737    0.0000 C   0  0  0  0  0  0  0  0  0  0  0  0
    3.4637   -0.1737    0.0000 C   0  0  0  0  0  0  0  0  0  0  0  0
    2.5987    0.3281    0.0000 C   0  0  0  0  0  0  0  0  0  0  0  0
   -1.7325   -0.1633    0.0000 C   0  0  0  0  0  0  0  0  0  0  0  0
   -1.7345   -1.1633    0.0000 O   0  0  0  0  0  0  0  0  0  0  0  0
   -0.8695   -1.6649    0.0000 R   0  0  0  0  0  0  0  0  0  0  0  0
   -2.5975    0.3385    0.0000 C   0  0  0  0  0  0  0  0  0  0  0  0
   -3.4645   -0.1597    0.0000 R   0  0  0  0  0  0  0  0  0  0  0  0
   -2.5953    1.3385    0.0000 O   0  0  0  0  0  0  0  0  0  0  0  0
  1  2  1  0
  2  3  1  0
  2  4  1  0
  4  5  1  1
  5  6  1  0
  6  7  1  0
  7  8  1  0
  8  9  1  0
  9 10  1  0
 10 11  1  0
 11 12  1  0
  4 13  1  0
 13 14  1  1
 14 15  1  0
 13 16  1  0
 16 17  1  0
 16 18  2  0
 12  7  1  0
M  ISO  4   1   1   3   3  15   4  17   2
V    1 *
V    3 *
V   15 *
V   17 *
M  END
>  <symbol>  (180) 
Cap

>  <m_Rgroups>  (180) 
[H],[OH],[H],[H],None,None

>  <m_abbr>  (180) 
Cap

>  <m_name>  (180) 
(2R,3S)-3-amino-5-cyclohexyl-2-hydroxypentanoic acid

>  <m_type>  (180) 
aa

>  <m_subtype>  (180) 
natural

>  <m_chem_types>  (180) 
1:backbone_n,2:backbone_c,3:backbone_n_mod,4:hydroxyl

$$$$

     RDKit          2D

 12 11  0  0  0  0  0  0  0  0999 V2000
   -1.2947    2.1692    0.0000 R   0  0  0  0  0  0  0  0  0  0  0  0
   -1.2967    1.1692    0.0000 N   0  0  0  0  0  0  0  0  0  0  0  0
   -2.1637    0.6710    0.0000 R   0  0  0  0  0  0  0  0  0  0  0  0
   -0.4317    0.6676    0.0000 C   0  0  0  0  0  0  0  0  0  0  0  0
   -0.4337   -0.3324    0.0000 C   0  0  0  0  0  0  0  0  0  0  0  0
    0.4313   -0.8342    0.0000 S   0  0  0  0  0  0  0  0  0  0  0  0
    0.4293   -1.8342    0.0000 S   0  0  0  0  0  0  0  0  0  0  0  0
    1.2943   -2.3358    0.0000 C   0  0  0  0  0  0  0  0  0  0  0  0
    1.2923   -3.3358    0.0000 C   0  0  0  0  0  0  0  0  0  0  0  0
    0.4353    1.1658    0.0000 C   0  0  0  0  0  0  0  0  0  0  0  0
    1.3005    0.6640    0.0000 R   0  0  0  0  0  0  0  0  0  0  0  0
    0.4375    2.1658    0.0000 O   0  0  0  0  0  0  0  0  0  0  0  0
  1  2  1  0
  2  3  1  0
  2  4  1  0
  4  5  1  6
  5  6  1  0
  6  7  1  0
  7  8  1  0
  8  9  1  0
  4 10  1  0
 10 11  1  0
 10 12  2  0
M  ISO  3   1   1   3   3  11   2
V    1 *
V    3 *
V   11 *
M  END
>  <symbol>  (181) 
Cys_SEt

>  <m_Rgroups>  (181) 
[H],[OH],[H],None,None,None

>  <m_abbr>  (181) 
Cys_SEt

>  <m_name>  (181) 
(2R)-2-amino-3-(ethyldisulfanyl)propanoic acid

>  <m_type>  (181) 
aa

>  <m_subtype>  (181) 
natural

>  <m_chem_types>  (181) 
1:backbone_n,2:backbone_c,3:backbone_n_mod

$$$$

     RDKit          2D

 18 17  0  0  0  0  0  0  0  0999 V2000
   -1.7250    3.5034    0.0000 R   0  0  0  0  0  0  0  0  0  0  0  0
   -1.7270    2.5034    0.0000 N   0  0  0  0  0  0  0  0  0  0  0  0
   -2.5940    2.0052    0.0000 R   0  0  0  0  0  0  0  0  0  0  0  0
   -0.8620    2.0016    0.0000 C   0  0  0  0  0  0  0  0  0  0  0  0
   -0.8640    1.0018    0.0000 C   0  0  0  0  0  0  0  0  0  0  0  0
    0.0010    0.5000    0.0000 C   0  0  0  0  0  0  0  0  0  0  0  0
   -0.0010   -0.5000    0.0000 C   0  0  0  0  0  0  0  0  0  0  0  0
    0.8640   -1.0018    0.0000 C   0  0  0  0  0  0  0  0  0  0  0  0
    0.8620   -2.0016    0.0000 C   0  0  0  0  0  0  0  0  0  0  0  0
    1.7270   -2.5034    0.0000 C   0  0  0  0  0  0  0  0  0  0  0  0
    1.7250   -3.5034    0.0000 R   0  0  0  0  0  0  0  0  0  0  0  0
    2.5940   -2.0052    0.0000 O   0  0  0  0  0  0  0  0  0  0  0  0
   -0.0050   -2.5000    0.0000 N   0  0  0  0  0  0  0  0  0  0  0  0
   -0.0070   -3.5000    0.0000 R   0  0  0  0  0  0  0  0  0  0  0  0
   -0.8700   -1.9982    0.0000 R   0  0  0  0  0  0  0  0  0  0  0  0
    0.0050    2.5000    0.0000 C   0  0  0  0  0  0  0  0  0  0  0  0
    0.8700    1.9982    0.0000 R   0  0  0  0  0  0  0  0  0  0  0  0
    0.0070    3.5000    0.0000 O   0  0  0  0  0  0  0  0  0  0  0  0
  1  2  1  0
  2  3  1  0
  2  4  1  0
  4  5  1  0
  5  6  1  0
  6  7  1  0
  7  8  1  0
  9  8  1  1
  9 10  1  0
 10 11  1  0
 10 12  2  0
  9 13  1  0
 13 14  1  0
 13 15  1  0
  4 16  1  0
 16 17  1  0
 16 18  2  0
M  ISO  6   1   1   3   3  11   5  14   4  15   6  17   2
V    1 *
V    3 *
V   11 *
V   14 *
V   15 *
V   17 *
M  END
>  <symbol>  (182) 
Dsu

>  <m_Rgroups>  (182) 
[H],[OH],[H],[H],[OH],[H]

>  <m_abbr>  (182) 
Dsu

>  <m_name>  (182) 
2,7-Diaminosuberic acid

>  <m_type>  (182) 
aa

>  <m_subtype>  (182) 
natural

>  <m_chem_types>  (182) 
1:backbone_n,2:backbone_c,3:backbone_n_mod,4:amine_primary,5:carboxyl,6:amine_secondary

$$$$

     RDKit          2D

 12 12  0  0  0  0  0  0  0  0999 V2000
   -0.8714   -1.8668    0.0000 R   0  0  0  0  0  0  0  0  0  0  0  0
   -0.7186   -0.8786    0.0000 N   0  0  0  0  0  0  0  0  0  0  0  0
   -1.4284   -0.1742    0.0000 C   0  0  0  0  0  0  0  0  0  0  0  0
   -0.9778    0.7186    0.0000 C   0  0  0  0  0  0  0  0  0  0  0  0
   -1.4350    1.6078    0.0000 C   0  0  0  0  0  0  0  0  0  0  0  0
    0.0104    0.5658    0.0000 C   0  0  0  0  0  0  0  0  0  0  0  0
    0.7150    1.2756    0.0000 O   0  0  0  0  0  0  0  0  0  0  0  0
    0.4524    2.2404    0.0000 R   0  0  0  0  0  0  0  0  0  0  0  0
    0.1706   -0.4214    0.0000 C   0  0  0  0  0  0  0  0  0  0  0  0
    1.0632   -0.8720    0.0000 C   0  0  0  0  0  0  0  0  0  0  0  0
    1.1192   -1.8704    0.0000 R   0  0  0  0  0  0  0  0  0  0  0  0
    1.9000   -0.3244    0.0000 O   0  0  0  0  0  0  0  0  0  0  0  0
  1  2  1  0
  2  3  1  0
  3  4  1  0
  4  5  1  0
  4  6  1  0
  6  7  1  0
  7  8  1  0
  6  9  1  0
  9 10  1  1
 10 11  1  0
 10 12  2  0
  9  2  1  0
M  ISO  3   1   1   8   3  11   2
V    1 *
V    8 *
V   11 *
M  END
>  <symbol>  (183) 
Pro_4Me3OH

>  <m_Rgroups>  (183) 
[H],[OH],[H],None,None,None

>  <m_abbr>  (183) 
Pro_4Me3OH

>  <m_name>  (183) 
(2S)-3-hydroxy-4-methylpyrrolidine-2-carboxylic acid

>  <m_type>  (183) 
aa

>  <m_subtype>  (183) 
natural

>  <m_chem_types>  (183) 
1:backbone_n,2:backbone_c,3:hydroxyl

$$$$

     RDKit          2D

 11 10  0  0  0  0  0  0  0  0999 V2000
   -1.1775    1.6841    0.0000 R   0  0  0  0  0  0  0  0  0  0  0  0
   -1.1795    0.6841    0.0000 N   0  0  0  0  0  0  0  0  0  0  0  0
   -2.0465    0.1859    0.0000 R   0  0  0  0  0  0  0  0  0  0  0  0
   -0.3145    0.1825    0.0000 C   0  0  0  0  0  0  0  0  0  0  0  0
   -0.3165   -0.8175    0.0000 C   0  0  0  0  0  0  0  0  0  0  0  0
    0.5485   -1.3193    0.0000 C   0  0  0  0  0  0  0  0  0  0  0  0
    0.5465   -2.3193    0.0000 R   0  0  0  0  0  0  0  0  0  0  0  0
    1.4155   -0.8209    0.0000 O   0  0  0  0  0  0  0  0  0  0  0  0
    0.5525    0.6807    0.0000 C   0  0  0  0  0  0  0  0  0  0  0  0
    1.4175    0.1789    0.0000 R   0  0  0  0  0  0  0  0  0  0  0  0
    0.5545    1.6807    0.0000 O   0  0  0  0  0  0  0  0  0  0  0  0
  1  2  1  0
  2  3  1  0
  2  4  1  0
  4  5  1  6
  5  6  1  0
  6  7  1  0
  6  8  2  0
  4  9  1  0
  9 10  1  0
  9 11  2  0
M  ISO  4   1   1   3   3   7   2  10   4
V    1 *
V    3 *
V    7 *
V   10 *
M  END
>  <symbol>  (184) 
Asp_al

>  <m_Rgroups>  (184) 
[H],[OH],[H],[H],None,None

>  <m_abbr>  (184) 
Asp_al

>  <m_name>  (184) 
(3S)-3-amino-4-oxobutanoic acid

>  <m_type>  (184) 
aa

>  <m_subtype>  (184) 
natural

>  <m_chem_types>  (184) 
1:backbone_n,2:backbone_c,3:backbone_n_mod,4:aldehyde

$$$$

     RDKit          2D

  9  9  0  0  0  0  0  0  0  0999 V2000
   -2.5955   -0.7314    0.0000 R   0  0  0  0  0  0  0  0  0  0  0  0
   -1.7313   -0.2284    0.0000 N   0  0  0  0  0  0  0  0  0  0  0  0
   -0.8635   -0.7252    0.0000 C   0  0  0  0  0  0  0  0  0  0  0  0
    0.0007   -0.2222    0.0000 C   0  0  0  0  0  0  0  0  0  0  0  0
    0.8687   -0.7192    0.0000 C   0  0  0  0  0  0  0  0  0  0  0  0
    1.7327   -0.2160    0.0000 C   0  0  0  0  0  0  0  0  0  0  0  0
    1.7293    0.7840    0.0000 C   0  0  0  0  0  0  0  0  0  0  0  0
    0.8613    1.2810    0.0000 C   0  0  0  0  0  0  0  0  0  0  0  0
   -0.0027    0.7778    0.0000 C   0  0  0  0  0  0  0  0  0  0  0  0
  1  2  1  0
  2  3  1  0
  3  4  1  0
  4  5  2  0
  5  6  1  0
  6  7  2  0
  7  8  1  0
  8  9  2  0
  9  4  1  0
M  ISO  1   1   1
V    1 *
M  END
>  <symbol>  (185) 
_NHBn

>  <m_Rgroups>  (185) 
[H],None,None,None,None,None

>  <m_abbr>  (185) 
_NHBn

>  <m_name>  (185) 
C-Terminal 1-phenylmethanamine

>  <m_type>  (185) 
cap

>  <m_subtype>  (185) 
cap

>  <m_chem_types>  (185) 
1:backbone_n

$$$$

     RDKit          2D

  3  2  0  0  0  0  0  0  0  0999 V2000
    0.8659   -0.1674    0.0000 R   0  0  0  0  0  0  0  0  0  0  0  0
    0.0003    0.3334    0.0000 N   0  0  0  0  0  0  0  0  0  0  0  0
   -0.8661   -0.1660    0.0000 C   0  0  0  0  0  0  0  0  0  0  0  0
  1  2  1  0
  2  3  1  0
M  ISO  1   1   1
V    1 *
M  END
>  <symbol>  (186) 
NHMe

>  <m_Rgroups>  (186) 
[H],None,None,None,None,None

>  <m_abbr>  (186) 
NHMe

>  <m_name>  (186) 
Methanamine

>  <m_type>  (186) 
cap

>  <m_subtype>  (186) 
cap

>  <m_chem_types>  (186) 
1:backbone_n

$$$$

     RDKit          2D

 13 12  0  0  0  0  0  0  0  0999 V2000
   -1.1945    2.2330    0.0000 R   0  0  0  0  0  0  0  0  0  0  0  0
   -1.1965    1.2332    0.0000 N   0  0  0  0  0  0  0  0  0  0  0  0
   -2.0637    0.7348    0.0000 R   0  0  0  0  0  0  0  0  0  0  0  0
   -0.3315    0.7314    0.0000 C   0  0  0  0  0  0  0  0  0  0  0  0
   -0.3337   -0.2686    0.0000 C   0  0  0  0  0  0  0  0  0  0  0  0
    0.5315   -0.7702    0.0000 C   0  0  0  0  0  0  0  0  0  0  0  0
    0.5293   -1.7702    0.0000 S   0  0  0  0  0  0  0  0  0  0  0  0
    0.5273   -2.7702    0.0000 C   0  0  0  0  0  0  0  0  0  0  0  0
    1.5293   -1.7722    0.0000 O   0  0  0  0  0  0  0  0  0  0  0  0
   -0.4705   -1.7682    0.0000 O   0  0  0  0  0  0  0  0  0  0  0  0
    0.5355    1.2296    0.0000 C   0  0  0  0  0  0  0  0  0  0  0  0
    1.4005    0.7280    0.0000 R   0  0  0  0  0  0  0  0  0  0  0  0
    0.5375    2.2296    0.0000 O   0  0  0  0  0  0  0  0  0  0  0  0
  1  2  1  0
  2  3  1  0
  2  4  1  0
  4  5  1  6
  5  6  1  0
  6  7  1  0
  7  8  1  0
  7  9  2  0
  7 10  2  0
  4 11  1  0
 11 12  1  0
 11 13  2  0
M  ISO  3   1   1   3   3  12   2
V    1 *
V    3 *
V   12 *
M  END
>  <symbol>  (187) 
Met_O2

>  <m_Rgroups>  (187) 
[H],[OH],[H],None,None,None

>  <m_abbr>  (187) 
Met_O2

>  <m_name>  (187) 
(2S)-2-amino-4-methanesulfonylbutanoic acid

>  <m_type>  (187) 
aa

>  <m_subtype>  (187) 
natural

>  <m_chem_types>  (187) 
1:backbone_n,2:backbone_c,3:backbone_n_mod

$$$$

     RDKit          2D

 15 15  0  0  0  0  0  0  0  0999 V2000
   -0.1714   -2.3002    0.0000 R   0  0  0  0  0  0  0  0  0  0  0  0
   -0.1722   -1.3002    0.0000 N   0  0  0  0  0  0  0  0  0  0  0  0
   -1.0386   -0.8008    0.0000 R   0  0  0  0  0  0  0  0  0  0  0  0
    0.6934   -0.7994    0.0000 C   0  0  0  0  0  0  0  0  0  0  0  0
    0.6926    0.2006    0.0000 C   0  0  0  0  0  0  0  0  0  0  0  0
   -0.1736    0.6998    0.0000 C   0  0  0  0  0  0  0  0  0  0  0  0
   -1.0394    0.1992    0.0000 C   0  0  0  0  0  0  0  0  0  0  0  0
   -1.9058    0.6984    0.0000 C   0  0  0  0  0  0  0  0  0  0  0  0
   -1.9066    1.6986    0.0000 C   0  0  0  0  0  0  0  0  0  0  0  0
   -1.0410    2.1990    0.0000 C   0  0  0  0  0  0  0  0  0  0  0  0
   -0.1744    1.7000    0.0000 C   0  0  0  0  0  0  0  0  0  0  0  0
    0.6910    2.2006    0.0000 C   0  0  0  0  0  0  0  0  0  0  0  0
    1.5598   -1.2988    0.0000 C   0  0  0  0  0  0  0  0  0  0  0  0
    1.5606   -2.2988    0.0000 R   0  0  0  0  0  0  0  0  0  0  0  0
    2.4254   -0.7980    0.0000 O   0  0  0  0  0  0  0  0  0  0  0  0
  1  2  1  0
  2  3  1  0
  2  4  1  0
  4  5  1  1
  5  6  1  0
  6  7  2  0
  7  8  1  0
  8  9  2  0
  9 10  1  0
 10 11  2  0
 11 12  1  0
  4 13  1  0
 13 14  1  0
 13 15  2  0
 11  6  1  0
M  ISO  3   1   1   3   3  14   2
V    1 *
V    3 *
V   14 *
M  END
>  <symbol>  (188) 
Phe_2Me

>  <m_Rgroups>  (188) 
[H],[OH],[H],None,None,None

>  <m_abbr>  (188) 
Phe_2Me

>  <m_name>  (188) 
(2S)-2-amino-3-(2-methylphenyl)propanoic acid

>  <m_type>  (188) 
aa

>  <m_subtype>  (188) 
natural

>  <m_chem_types>  (188) 
1:backbone_n,2:backbone_c,3:backbone_n_mod

$$$$

     RDKit          2D

 16 16  0  0  0  0  0  0  0  0999 V2000
    0.1102   -2.5000    0.0000 R   0  0  0  0  0  0  0  0  0  0  0  0
    0.1094   -1.5000    0.0000 N   0  0  0  0  0  0  0  0  0  0  0  0
   -0.7570   -1.0005    0.0000 R   0  0  0  0  0  0  0  0  0  0  0  0
    0.9750   -0.9991    0.0000 C   0  0  0  0  0  0  0  0  0  0  0  0
    0.9742    0.0009    0.0000 C   0  0  0  0  0  0  0  0  0  0  0  0
    0.1080    0.5001    0.0000 C   0  0  0  0  0  0  0  0  0  0  0  0
   -0.7578   -0.0005    0.0000 C   0  0  0  0  0  0  0  0  0  0  0  0
   -1.6242    0.4987    0.0000 C   0  0  0  0  0  0  0  0  0  0  0  0
   -1.6250    1.4986    0.0000 C   0  0  0  0  0  0  0  0  0  0  0  0
   -2.4914    1.9980    0.0000 Cl  0  0  0  0  0  0  0  0  0  0  0  0
   -0.7594    1.9993    0.0000 C   0  0  0  0  0  0  0  0  0  0  0  0
   -0.7602    2.9994    0.0000 Cl  0  0  0  0  0  0  0  0  0  0  0  0
    0.1072    1.5000    0.0000 C   0  0  0  0  0  0  0  0  0  0  0  0
    1.8414   -1.4985    0.0000 C   0  0  0  0  0  0  0  0  0  0  0  0
    1.8422   -2.4985    0.0000 R   0  0  0  0  0  0  0  0  0  0  0  0
    2.7070   -0.9977    0.0000 O   0  0  0  0  0  0  0  0  0  0  0  0
  1  2  1  0
  2  3  1  0
  2  4  1  0
  4  5  1  1
  5  6  1  0
  6  7  1  0
  7  8  2  0
  8  9  1  0
  9 10  1  0
  9 11  2  0
 11 12  1  0
 11 13  1  0
  4 14  1  0
 14 15  1  0
 14 16  2  0
 13  6  2  0
M  ISO  3   1   1   3   3  15   2
V    1 *
V    3 *
V   15 *
M  END
>  <symbol>  (189) 
Phe_34diCl

>  <m_Rgroups>  (189) 
[H],[OH],[H],None,None,None

>  <m_abbr>  (189) 
Phe_34diCl

>  <m_name>  (189) 
(2S)-2-amino-3-(3,4-dichlorophenyl)propanoic acid

>  <m_type>  (189) 
aa

>  <m_subtype>  (189) 
natural

>  <m_chem_types>  (189) 
1:backbone_n,2:backbone_c,3:backbone_n_mod

$$$$

     RDKit          2D

 15 15  0  0  0  0  0  0  0  0999 V2000
    0.0494   -2.3001    0.0000 R   0  0  0  0  0  0  0  0  0  0  0  0
    0.0530   -1.3003    0.0000 N   0  0  0  0  0  0  0  0  0  0  0  0
   -0.8112   -0.7971    0.0000 R   0  0  0  0  0  0  0  0  0  0  0  0
    0.9208   -0.8033    0.0000 C   0  0  0  0  0  0  0  0  0  0  0  0
    0.9244    0.1967    0.0000 C   0  0  0  0  0  0  0  0  0  0  0  0
    0.0604    0.6997    0.0000 C   0  0  0  0  0  0  0  0  0  0  0  0
   -0.8076    0.2027    0.0000 C   0  0  0  0  0  0  0  0  0  0  0  0
   -1.6716    0.7059    0.0000 C   0  0  0  0  0  0  0  0  0  0  0  0
   -1.6682    1.7059    0.0000 C   0  0  0  0  0  0  0  0  0  0  0  0
   -2.5324    2.2091    0.0000 Br  0  0  0  0  0  0  0  0  0  0  0  0
   -0.8004    2.2029    0.0000 C   0  0  0  0  0  0  0  0  0  0  0  0
    0.0638    1.6997    0.0000 C   0  0  0  0  0  0  0  0  0  0  0  0
    1.7850   -1.3065    0.0000 C   0  0  0  0  0  0  0  0  0  0  0  0
    1.7814   -2.3063    0.0000 R   0  0  0  0  0  0  0  0  0  0  0  0
    2.6528   -0.8095    0.0000 O   0  0  0  0  0  0  0  0  0  0  0  0
  1  2  1  0
  2  3  1  0
  2  4  1  0
  4  5  1  1
  5  6  1  0
  6  7  1  0
  7  8  2  0
  8  9  1  0
  9 10  1  0
  9 11  2  0
 11 12  1  0
  4 13  1  0
 13 14  1  0
 13 15  2  0
 12  6  2  0
M  ISO  3   1   1   3   3  14   2
V    1 *
V    3 *
V   14 *
M  END
>  <symbol>  (190) 
Phe_4Br

>  <m_Rgroups>  (190) 
[H],[OH],[H],None,None,None

>  <m_abbr>  (190) 
Phe_4Br

>  <m_name>  (190) 
(2S)-2-amino-3-(4-bromophenyl)propanoic acid

>  <m_type>  (190) 
aa

>  <m_subtype>  (190) 
natural

>  <m_chem_types>  (190) 
1:backbone_n,2:backbone_c,3:backbone_n_mod

$$$$

     RDKit          2D

 15 15  0  0  0  0  0  0  0  0999 V2000
    0.0494   -2.3001    0.0000 R   0  0  0  0  0  0  0  0  0  0  0  0
    0.0530   -1.3003    0.0000 N   0  0  0  0  0  0  0  0  0  0  0  0
   -0.8112   -0.7971    0.0000 R   0  0  0  0  0  0  0  0  0  0  0  0
    0.9208   -0.8033    0.0000 C   0  0  0  0  0  0  0  0  0  0  0  0
    0.9244    0.1967    0.0000 C   0  0  0  0  0  0  0  0  0  0  0  0
    0.0604    0.6997    0.0000 C   0  0  0  0  0  0  0  0  0  0  0  0
   -0.8076    0.2027    0.0000 C   0  0  0  0  0  0  0  0  0  0  0  0
   -1.6716    0.7059    0.0000 C   0  0  0  0  0  0  0  0  0  0  0  0
   -1.6682    1.7059    0.0000 C   0  0  0  0  0  0  0  0  0  0  0  0
   -2.5324    2.2091    0.0000 I   0  0  0  0  0  0  0  0  0  0  0  0
   -0.8004    2.2029    0.0000 C   0  0  0  0  0  0  0  0  0  0  0  0
    0.0638    1.6997    0.0000 C   0  0  0  0  0  0  0  0  0  0  0  0
    1.7850   -1.3065    0.0000 C   0  0  0  0  0  0  0  0  0  0  0  0
    1.7814   -2.3063    0.0000 R   0  0  0  0  0  0  0  0  0  0  0  0
    2.6528   -0.8095    0.0000 O   0  0  0  0  0  0  0  0  0  0  0  0
  1  2  1  0
  2  3  1  0
  2  4  1  0
  4  5  1  1
  5  6  1  0
  6  7  1  0
  7  8  2  0
  8  9  1  0
  9 10  1  0
  9 11  2  0
 11 12  1  0
  4 13  1  0
 13 14  1  0
 13 15  2  0
 12  6  2  0
M  ISO  3   1   1   3   3  14   2
V    1 *
V    3 *
V   14 *
M  END
>  <symbol>  (191) 
Phe_4I

>  <m_Rgroups>  (191) 
[H],[OH],[H],None,None,None

>  <m_abbr>  (191) 
Phe_4I

>  <m_name>  (191) 
(2S)-2-amino-3-(4-iodophenyl)propanoic acid

>  <m_type>  (191) 
aa

>  <m_subtype>  (191) 
natural

>  <m_chem_types>  (191) 
1:backbone_n,2:backbone_c,3:backbone_n_mod

$$$$

     RDKit          2D

 28 29  0  0  0  0  0  0  0  0999 V2000
    4.6101   -0.4300    0.0000 R   0  0  0  0  0  0  0  0  0  0  0  0
    3.7423    0.0670    0.0000 N   0  0  0  0  0  0  0  0  0  0  0  0
    2.8781   -0.4360    0.0000 R   0  0  0  0  0  0  0  0  0  0  0  0
    3.7387    1.0670    0.0000 C   0  0  0  0  0  0  0  0  0  0  0  0
    2.8711    1.5640    0.0000 C   0  0  0  0  0  0  0  0  0  0  0  0
    2.0079    1.0606    0.0000 C   0  0  0  0  0  0  0  0  0  0  0  0
    2.0095    0.0614    0.0000 C   0  0  0  0  0  0  0  0  0  0  0  0
    1.1469   -0.4432    0.0000 C   0  0  0  0  0  0  0  0  0  0  0  0
    0.2771    0.0548    0.0000 C   0  0  0  0  0  0  0  0  0  0  0  0
   -0.5861   -0.4486    0.0000 N   0  0  0  0  0  0  0  0  0  0  0  0
   -0.5825   -1.4484    0.0000 R   0  0  0  0  0  0  0  0  0  0  0  0
   -1.4539    0.0484    0.0000 C   0  0  0  0  0  0  0  0  0  0  0  0
   -1.4575    1.0484    0.0000 O   0  0  0  0  0  0  0  0  0  0  0  0
   -2.3169   -0.4550    0.0000 C   0  0  0  0  0  0  0  0  0  0  0  0
   -2.3153   -1.4542    0.0000 C   0  0  0  0  0  0  0  0  0  0  0  0
   -3.1779   -1.9588    0.0000 C   0  0  0  0  0  0  0  0  0  0  0  0
   -3.1749   -2.9580    0.0000 O   0  0  0  0  0  0  0  0  0  0  0  0
   -4.0477   -1.4608    0.0000 N   0  0  0  0  0  0  0  0  0  0  0  0
   -4.9111   -1.9640    0.0000 R   0  0  0  0  0  0  0  0  0  0  0  0
   -4.0493   -0.4616    0.0000 C   0  0  0  0  0  0  0  0  0  0  0  0
   -4.9181    0.0358    0.0000 O   0  0  0  0  0  0  0  0  0  0  0  0
   -3.1869    0.0430    0.0000 N   0  0  0  0  0  0  0  0  0  0  0  0
   -3.1899    1.0422    0.0000 R   0  0  0  0  0  0  0  0  0  0  0  0
    0.2753    1.0542    0.0000 C   0  0  0  0  0  0  0  0  0  0  0  0
    1.1381    1.5588    0.0000 C   0  0  0  0  0  0  0  0  0  0  0  0
    4.6029    1.5700    0.0000 C   0  0  0  0  0  0  0  0  0  0  0  0
    5.4707    1.0732    0.0000 R   0  0  0  0  0  0  0  0  0  0  0  0
    4.5993    2.5700    0.0000 O   0  0  0  0  0  0  0  0  0  0  0  0
  1  2  1  0
  2  3  1  0
  2  4  1  0
  4  5  1  1
  5  6  1  0
  6  7  1  0
  7  8  2  0
  8  9  1  0
  9 10  1  0
 10 11  1  0
 10 12  1  0
 12 13  2  0
 14 12  1  6
 14 15  1  0
 15 16  1  0
 16 17  2  0
 16 18  1  0
 18 19  1  0
 18 20  1  0
 20 21  2  0
 20 22  1  0
 22 23  1  0
  9 24  2  0
 24 25  1  0
  4 26  1  0
 26 27  1  0
 26 28  2  0
 25  6  2  0
 22 14  1  0
M  ISO  6   1   1   3   3  11   4  19   5  23   6  27   2
V    1 *
V    3 *
V   11 *
V   19 *
V   23 *
V   27 *
M  END
>  <symbol>  (192) 
Phe_4Sdihydroorotamido

>  <m_Rgroups>  (192) 
[H],[OH],[H],[H],[H],[H]

>  <m_abbr>  (192) 
Phe_4Sdihydroorotamido

>  <m_name>  (192) 
(2S)-2-amino-3-{4-[(4S)-2,6-dioxo-1,3-diazinane-4-amido]phenyl}propanoic acid

>  <m_type>  (192) 
aa

>  <m_subtype>  (192) 
natural

>  <m_chem_types>  (192) 
1:backbone_n,2:backbone_c,3:backbone_n_mod,4:amide_nh,5:amide_nh,6:amide_nh

$$$$

     RDKit          2D

 21 21  0  0  0  0  0  0  0  0999 V2000
    0.3612    4.2881    0.0000 R   0  0  0  0  0  0  0  0  0  0  0  0
    0.3632    3.2881    0.0000 N   0  0  0  0  0  0  0  0  0  0  0  0
   -0.5018    2.7865    0.0000 R   0  0  0  0  0  0  0  0  0  0  0  0
    1.2302    2.7899    0.0000 C   0  0  0  0  0  0  0  0  0  0  0  0
    1.2324    1.7901    0.0000 C   0  0  0  0  0  0  0  0  0  0  0  0
    0.3674    1.2881    0.0000 C   0  0  0  0  0  0  0  0  0  0  0  0
    0.3698    0.2883    0.0000 C   0  0  0  0  0  0  0  0  0  0  0  0
   -0.4946   -0.2137    0.0000 C   0  0  0  0  0  0  0  0  0  0  0  0
   -0.4922   -1.2137    0.0000 N   0  0  0  0  0  0  0  0  0  0  0  0
    0.3748   -1.7117    0.0000 R   0  0  0  0  0  0  0  0  0  0  0  0
   -1.3568   -1.7151    0.0000 C   0  0  0  0  0  0  0  0  0  0  0  0
   -2.2236   -1.2163    0.0000 O   0  0  0  0  0  0  0  0  0  0  0  0
   -1.3552   -2.7157    0.0000 C   0  0  0  0  0  0  0  0  0  0  0  0
   -2.1662   -3.3019    0.0000 N   0  0  0  0  0  0  0  0  0  0  0  0
   -1.8572   -4.2527    0.0000 C   0  0  0  0  0  0  0  0  0  0  0  0
   -0.8574   -4.2551    0.0000 C   0  0  0  0  0  0  0  0  0  0  0  0
   -0.5482   -3.3035    0.0000 C   0  0  0  0  0  0  0  0  0  0  0  0
    0.4042   -2.9963    0.0000 C   0  0  0  0  0  0  0  0  0  0  0  0
    2.0952    3.2917    0.0000 C   0  0  0  0  0  0  0  0  0  0  0  0
    2.0932    4.2917    0.0000 R   0  0  0  0  0  0  0  0  0  0  0  0
    2.9624    2.7933    0.0000 O   0  0  0  0  0  0  0  0  0  0  0  0
  1  2  1  0
  2  3  1  0
  2  4  1  0
  4  5  1  6
  5  6  1  0
  6  7  1  0
  7  8  1  0
  8  9  1  0
  9 10  1  0
  9 11  1  0
 11 12  2  0
 13 11  1  1
 13 14  1  0
 14 15  2  0
 15 16  1  0
 16 17  1  0
 17 18  1  6
  4 19  1  0
 19 20  1  0
 19 21  2  0
 17 13  1  0
M  ISO  4   1   1   3   3  10   4  20   2
V    1 *
V    3 *
V   10 *
V   20 *
M  END
>  <symbol>  (193) 
Pyl

>  <m_Rgroups>  (193) 
[H],[OH],[H],[H],None,None

>  <m_abbr>  (193) 
Pyl

>  <m_name>  (193) 
Pyrrolysine

>  <m_type>  (193) 
aa

>  <m_subtype>  (193) 
natural

>  <m_chem_types>  (193) 
1:backbone_n,2:backbone_c,3:backbone_n_mod,4:amide_nh

$$$$

     RDKit          2D

 13 12  0  0  0  0  0  0  0  0999 V2000
   -1.1945   -2.2330    0.0000 R   0  0  0  0  0  0  0  0  0  0  0  0
   -1.1965   -1.2332    0.0000 N   0  0  0  0  0  0  0  0  0  0  0  0
   -2.0637   -0.7348    0.0000 R   0  0  0  0  0  0  0  0  0  0  0  0
   -0.3315   -0.7314    0.0000 C   0  0  0  0  0  0  0  0  0  0  0  0
   -0.3337    0.2686    0.0000 C   0  0  0  0  0  0  0  0  0  0  0  0
    0.5315    0.7702    0.0000 O   0  0  0  0  0  0  0  0  0  0  0  0
    0.5293    1.7702    0.0000 P   0  0  0  0  0  0  0  0  0  0  0  0
   -0.4705    1.7682    0.0000 R   0  0  0  0  0  0  0  0  0  0  0  0
    0.5273    2.7702    0.0000 O   0  0  0  0  0  0  0  0  0  0  0  0
    1.5293    1.7722    0.0000 O   0  0  0  0  0  0  0  0  0  0  0  0
    0.5355   -1.2296    0.0000 C   0  0  0  0  0  0  0  0  0  0  0  0
    1.4005   -0.7280    0.0000 R   0  0  0  0  0  0  0  0  0  0  0  0
    0.5375   -2.2296    0.0000 O   0  0  0  0  0  0  0  0  0  0  0  0
  1  2  1  0
  2  3  1  0
  2  4  1  0
  4  5  1  1
  5  6  1  0
  6  7  1  0
  7  8  1  0
  7  9  2  0
  7 10  1  0
  4 11  1  0
 11 12  1  0
 11 13  2  0
M  ISO  4   1   1   3   3   8   4  12   2
V    1 *
V    3 *
V    8 *
V   12 *
M  END
>  <symbol>  (194) 
Ser_PO3H2

>  <m_Rgroups>  (194) 
[H],[OH],[H],[OH],None,None

>  <m_abbr>  (194) 
Ser_PO3H2

>  <m_name>  (194) 
(2S)-2-amino-3-(phosphonooxy)propanoic acid

>  <m_type>  (194) 
aa

>  <m_subtype>  (194) 
natural

>  <m_chem_types>  (194) 
1:backbone_n,2:backbone_c,3:backbone_n_mod,4:phosphate_p

$$$$

     RDKit          2D

 14 13  0  0  0  0  0  0  0  0999 V2000
   -1.1088   -2.2879    0.0000 R   0  0  0  0  0  0  0  0  0  0  0  0
   -1.1108   -1.2879    0.0000 N   0  0  0  0  0  0  0  0  0  0  0  0
   -1.9780   -0.7897    0.0000 R   0  0  0  0  0  0  0  0  0  0  0  0
   -0.2458   -0.7863    0.0000 C   0  0  0  0  0  0  0  0  0  0  0  0
    0.6212   -1.2845    0.0000 C   0  0  0  0  0  0  0  0  0  0  0  0
    1.4862   -0.7827    0.0000 R   0  0  0  0  0  0  0  0  0  0  0  0
    0.6232   -2.2845    0.0000 O   0  0  0  0  0  0  0  0  0  0  0  0
   -0.2478    0.2137    0.0000 C   0  0  0  0  0  0  0  0  0  0  0  0
   -1.1150    0.7121    0.0000 C   0  0  0  0  0  0  0  0  0  0  0  0
    0.6172    0.7155    0.0000 O   0  0  0  0  0  0  0  0  0  0  0  0
    0.6150    1.7155    0.0000 P   0  0  0  0  0  0  0  0  0  0  0  0
   -0.3848    1.7135    0.0000 R   0  0  0  0  0  0  0  0  0  0  0  0
    0.6130    2.7155    0.0000 O   0  0  0  0  0  0  0  0  0  0  0  0
    1.6150    1.7175    0.0000 O   0  0  0  0  0  0  0  0  0  0  0  0
  1  2  1  0
  2  3  1  0
  4  2  1  1
  4  5  1  0
  5  6  1  0
  5  7  2  0
  4  8  1  0
  8  9  1  1
  8 10  1  0
 10 11  1  0
 11 12  1  0
 11 13  2  0
 11 14  1  0
M  ISO  4   1   1   3   3   6   2  12   4
V    1 *
V    3 *
V    6 *
V   12 *
M  END
>  <symbol>  (195) 
Thr_PO3H2

>  <m_Rgroups>  (195) 
[H],[OH],[H],[OH],None,None

>  <m_abbr>  (195) 
Thr_PO3H2

>  <m_name>  (195) 
(2S,3R)-2-amino-3-(phosphonooxy)butanoic acid

>  <m_type>  (195) 
aa

>  <m_subtype>  (195) 
natural

>  <m_chem_types>  (195) 
1:backbone_n,2:backbone_c,3:backbone_n_mod,4:phosphate_p

$$$$

     RDKit          2D

  9  9  0  0  0  0  0  0  0  0999 V2000
   -0.9077    1.2931    0.0000 R   0  0  0  0  0  0  0  0  0  0  0  0
   -0.7499    0.3057    0.0000 N   0  0  0  0  0  0  0  0  0  0  0  0
   -1.4561   -0.4023    0.0000 C   0  0  0  0  0  0  0  0  0  0  0  0
   -1.0011   -1.2927    0.0000 S   0  0  0  0  0  0  0  0  0  0  0  0
   -0.0137   -1.1351    0.0000 C   0  0  0  0  0  0  0  0  0  0  0  0
    0.1415   -0.1473    0.0000 C   0  0  0  0  0  0  0  0  0  0  0  0
    1.0321    0.3079    0.0000 C   0  0  0  0  0  0  0  0  0  0  0  0
    1.8713   -0.2357    0.0000 R   0  0  0  0  0  0  0  0  0  0  0  0
    1.0833    1.3065    0.0000 O   0  0  0  0  0  0  0  0  0  0  0  0
  1  2  1  0
  2  3  1  0
  3  4  1  0
  4  5  1  0
  5  6  1  0
  6  7  1  6
  7  8  1  0
  7  9  2  0
  6  2  1  0
M  ISO  2   1   1   8   2
V    1 *
V    8 *
M  END
>  <symbol>  (196) 
Thz

>  <m_Rgroups>  (196) 
[H],[OH],None,None,None,None

>  <m_abbr>  (196) 
Thz

>  <m_name>  (196) 
(4R)-1,3-thiazolidine-4-carboxylic acid

>  <m_type>  (196) 
aa

>  <m_subtype>  (196) 
natural

>  <m_chem_types>  (196) 
1:backbone_n,2:backbone_c

$$$$

     RDKit          2D

 18 19  0  0  0  0  0  0  0  0999 V2000
   -1.7608   -2.8281    0.0000 R   0  0  0  0  0  0  0  0  0  0  0  0
   -1.7628   -1.8279    0.0000 N   0  0  0  0  0  0  0  0  0  0  0  0
   -2.6300   -1.3297    0.0000 R   0  0  0  0  0  0  0  0  0  0  0  0
   -0.8980   -1.3261    0.0000 C   0  0  0  0  0  0  0  0  0  0  0  0
   -0.9000   -0.3261    0.0000 C   0  0  0  0  0  0  0  0  0  0  0  0
   -0.0352    0.1757    0.0000 C   0  0  0  0  0  0  0  0  0  0  0  0
    0.8792   -0.2289    0.0000 C   0  0  0  0  0  0  0  0  0  0  0  0
    1.5468    0.5155    0.0000 N   0  0  0  0  0  0  0  0  0  0  0  0
    2.5414    0.4133    0.0000 C   0  0  0  0  0  0  0  0  0  0  0  0
    1.0448    1.3805    0.0000 C   0  0  0  0  0  0  0  0  0  0  0  0
    1.3518    2.3321    0.0000 C   0  0  0  0  0  0  0  0  0  0  0  0
    0.6812    3.0739    0.0000 C   0  0  0  0  0  0  0  0  0  0  0  0
   -0.2966    2.8639    0.0000 C   0  0  0  0  0  0  0  0  0  0  0  0
   -0.6034    1.9121    0.0000 C   0  0  0  0  0  0  0  0  0  0  0  0
    0.0672    1.1705    0.0000 C   0  0  0  0  0  0  0  0  0  0  0  0
   -0.0310   -1.8243    0.0000 C   0  0  0  0  0  0  0  0  0  0  0  0
   -0.0290   -2.8243    0.0000 R   0  0  0  0  0  0  0  0  0  0  0  0
    0.8340   -1.3227    0.0000 O   0  0  0  0  0  0  0  0  0  0  0  0
  1  2  1  0
  2  3  1  0
  2  4  1  0
  4  5  1  1
  5  6  1  0
  6  7  2  0
  7  8  1  0
  8  9  1  0
  8 10  1  0
 10 11  2  0
 11 12  1  0
 12 13  2  0
 13 14  1  0
 14 15  2  0
  4 16  1  0
 16 17  1  0
 16 18  2  0
 15  6  1  0
 15 10  1  0
M  ISO  3   1   1   3   3  17   2
V    1 *
V    3 *
V   17 *
M  END
>  <symbol>  (197) 
Trp_Me

>  <m_Rgroups>  (197) 
[H],[OH],[H],None,None,None

>  <m_abbr>  (197) 
Trp_Me

>  <m_name>  (197) 
(2S)-2-amino-3-(1-methyl-1H-indol-3-yl)propanoic acid

>  <m_type>  (197) 
aa

>  <m_subtype>  (197) 
natural

>  <m_chem_types>  (197) 
1:backbone_n,2:backbone_c,3:backbone_n_mod

$$$$

     RDKit          2D

 18 18  0  0  0  0  0  0  0  0999 V2000
    0.1680   -2.7942    0.0000 R   0  0  0  0  0  0  0  0  0  0  0  0
    0.0984   -1.7802    0.0000 N   0  0  0  0  0  0  0  0  0  0  0  0
   -0.8364   -1.3606    0.0000 R   0  0  0  0  0  0  0  0  0  0  0  0
    1.0456   -1.1888    0.0000 C   0  0  0  0  0  0  0  0  0  0  0  0
    1.1430    0.0130    0.0000 C   0  0  0  0  0  0  0  0  0  0  0  0
    0.2832    0.7106    0.0000 C   0  0  0  0  0  0  0  0  0  0  0  0
    0.3212    1.7116    0.0000 C   0  0  0  0  0  0  0  0  0  0  0  0
    1.2016    2.1834    0.0000 C   0  0  0  0  0  0  0  0  0  0  0  0
   -0.5282    2.2432    0.0000 C   0  0  0  0  0  0  0  0  0  0  0  0
   -1.4118    1.7774    0.0000 C   0  0  0  0  0  0  0  0  0  0  0  0
   -2.2636    2.3032    0.0000 O   0  0  0  0  0  0  0  0  0  0  0  0
   -3.1464    1.8264    0.0000 R   0  0  0  0  0  0  0  0  0  0  0  0
   -1.4442    0.7774    0.0000 C   0  0  0  0  0  0  0  0  0  0  0  0
   -0.5966    0.2434    0.0000 C   0  0  0  0  0  0  0  0  0  0  0  0
   -0.5828   -0.7078    0.0000 C   0  0  0  0  0  0  0  0  0  0  0  0
    1.9092   -1.7822    0.0000 C   0  0  0  0  0  0  0  0  0  0  0  0
    1.8216   -2.7998    0.0000 R   0  0  0  0  0  0  0  0  0  0  0  0
    2.8176   -1.3752    0.0000 O   0  0  0  0  0  0  0  0  0  0  0  0
  1  2  1  0
  2  3  1  0
  2  4  1  0
  4  5  1  1
  5  6  1  0
  6  7  2  0
  7  8  1  0
  7  9  1  0
  9 10  2  0
 10 11  1  0
 11 12  1  0
 10 13  1  0
 13 14  2  0
 14 15  1  0
  4 16  1  0
 16 17  1  0
 16 18  2  0
 14  6  1  0
M  ISO  4   1   1   3   3  12   4  17   2
V    1 *
V    3 *
V   12 *
V   17 *
M  END
>  <symbol>  (198) 
Tyr_26diMe

>  <m_Rgroups>  (198) 
[H],[OH],[H],[H],None,None

>  <m_abbr>  (198) 
Tyr_26diMe

>  <m_name>  (198) 
(2S)-2-amino-3-(4-hydroxy-2,6-dimethylphenyl)propanoic acid

>  <m_type>  (198) 
aa

>  <m_subtype>  (198) 
natural

>  <m_chem_types>  (198) 
1:backbone_n,2:backbone_c,3:backbone_n_mod,4:hydroxyl_phenolic

$$$$

     RDKit          2D

 17 17  0  0  0  0  0  0  0  0999 V2000
    0.3077   -2.5880    0.0000 R   0  0  0  0  0  0  0  0  0  0  0  0
    0.3069   -1.5880    0.0000 N   0  0  0  0  0  0  0  0  0  0  0  0
   -0.5595   -1.0888    0.0000 R   0  0  0  0  0  0  0  0  0  0  0  0
    1.1725   -1.0874    0.0000 C   0  0  0  0  0  0  0  0  0  0  0  0
    1.1717   -0.0874    0.0000 C   0  0  0  0  0  0  0  0  0  0  0  0
    0.3055    0.4120    0.0000 C   0  0  0  0  0  0  0  0  0  0  0  0
   -0.5603   -0.0886    0.0000 C   0  0  0  0  0  0  0  0  0  0  0  0
   -1.4267    0.4106    0.0000 C   0  0  0  0  0  0  0  0  0  0  0  0
   -1.4275    1.4106    0.0000 C   0  0  0  0  0  0  0  0  0  0  0  0
   -2.2939    1.9098    0.0000 O   0  0  0  0  0  0  0  0  0  0  0  0
   -3.1595    1.4092    0.0000 R   0  0  0  0  0  0  0  0  0  0  0  0
   -0.5619    1.9112    0.0000 C   0  0  0  0  0  0  0  0  0  0  0  0
   -0.5627    2.9112    0.0000 I   0  0  0  0  0  0  0  0  0  0  0  0
    0.3047    1.4120    0.0000 C   0  0  0  0  0  0  0  0  0  0  0  0
    2.0389   -1.5866    0.0000 C   0  0  0  0  0  0  0  0  0  0  0  0
    2.0397   -2.5866    0.0000 R   0  0  0  0  0  0  0  0  0  0  0  0
    2.9045   -1.0860    0.0000 O   0  0  0  0  0  0  0  0  0  0  0  0
  1  2  1  0
  2  3  1  0
  2  4  1  0
  4  5  1  1
  5  6  1  0
  6  7  1  0
  7  8  2  0
  8  9  1  0
  9 10  1  0
 10 11  1  0
  9 12  2  0
 12 13  1  0
 12 14  1  0
  4 15  1  0
 15 16  1  0
 15 17  2  0
 14  6  2  0
M  ISO  4   1   1   3   3  11   4  16   2
V    1 *
V    3 *
V   11 *
V   16 *
M  END
>  <symbol>  (199) 
Tyr_3I

>  <m_Rgroups>  (199) 
[H],[OH],[H],[H],None,None

>  <m_abbr>  (199) 
Tyr_3I

>  <m_name>  (199) 
(2S)-2-amino-3-(4-hydroxy-3-iodophenyl)propanoic acid

>  <m_type>  (199) 
aa

>  <m_subtype>  (199) 
natural

>  <m_chem_types>  (199) 
1:backbone_n,2:backbone_c,3:backbone_n_mod,4:hydroxyl_phenolic

$$$$

     RDKit          2D

 19 19  0  0  0  0  0  0  0  0999 V2000
    0.3080   -3.0273    0.0000 R   0  0  0  0  0  0  0  0  0  0  0  0
    0.3116   -2.0275    0.0000 N   0  0  0  0  0  0  0  0  0  0  0  0
   -0.5526   -1.5243    0.0000 R   0  0  0  0  0  0  0  0  0  0  0  0
    1.1796   -1.5305    0.0000 C   0  0  0  0  0  0  0  0  0  0  0  0
    1.1832   -0.5305    0.0000 C   0  0  0  0  0  0  0  0  0  0  0  0
    0.3190   -0.0275    0.0000 C   0  0  0  0  0  0  0  0  0  0  0  0
   -0.5490   -0.5245    0.0000 C   0  0  0  0  0  0  0  0  0  0  0  0
   -1.4130   -0.0213    0.0000 C   0  0  0  0  0  0  0  0  0  0  0  0
   -1.4096    0.9787    0.0000 C   0  0  0  0  0  0  0  0  0  0  0  0
   -2.2738    1.4817    0.0000 O   0  0  0  0  0  0  0  0  0  0  0  0
   -2.2700    2.4817    0.0000 R   0  0  0  0  0  0  0  0  0  0  0  0
   -0.5416    1.4757    0.0000 C   0  0  0  0  0  0  0  0  0  0  0  0
   -0.5380    2.4755    0.0000 N   0  0  0  0  0  0  0  0  0  0  0  0
    0.3298    2.9725    0.0000 O   0  0  0  0  0  0  0  0  0  0  0  0
   -1.4022    2.9787    0.0000 O   0  0  0  0  0  0  0  0  0  0  0  0
    0.3224    0.9725    0.0000 C   0  0  0  0  0  0  0  0  0  0  0  0
    2.0438   -2.0337    0.0000 C   0  0  0  0  0  0  0  0  0  0  0  0
    2.0402   -3.0337    0.0000 R   0  0  0  0  0  0  0  0  0  0  0  0
    2.9116   -1.5367    0.0000 O   0  0  0  0  0  0  0  0  0  0  0  0
  1  2  1  0
  2  3  1  0
  2  4  1  0
  4  5  1  1
  5  6  1  0
  6  7  1  0
  7  8  2  0
  8  9  1  0
  9 10  1  0
 10 11  1  0
  9 12  2  0
 12 13  1  0
 13 14  2  0
 13 15  1  0
 12 16  1  0
  4 17  1  0
 17 18  1  0
 17 19  2  0
 16  6  2  0
M  CHG  2  13   1  15  -1
M  ISO  4   1   1   3   3  11   4  18   2
V    1 *
V    3 *
V   11 *
V   18 *
M  END
>  <symbol>  (200) 
Tyr_3NO2

>  <m_Rgroups>  (200) 
[H],[OH],[H],[H],None,None

>  <m_abbr>  (200) 
Tyr_3NO2

>  <m_name>  (200) 
(2S)-2-amino-3-(4-hydroxy-3-nitrophenyl)propanoic acid

>  <m_type>  (200) 
aa

>  <m_subtype>  (200) 
natural

>  <m_chem_types>  (200) 
1:backbone_n,2:backbone_c,3:backbone_n_mod,4:hydroxyl_phenolic

$$$$

     RDKit          2D

 23 24  0  0  0  0  0  0  0  0999 V2000
    0.8894   -3.9596    0.0000 R   0  0  0  0  0  0  0  0  0  0  0  0
    0.8930   -2.9598    0.0000 N   0  0  0  0  0  0  0  0  0  0  0  0
    0.0288   -2.4566    0.0000 R   0  0  0  0  0  0  0  0  0  0  0  0
    1.7608   -2.4628    0.0000 C   0  0  0  0  0  0  0  0  0  0  0  0
    1.7644   -1.4628    0.0000 C   0  0  0  0  0  0  0  0  0  0  0  0
    0.9004   -0.9598    0.0000 C   0  0  0  0  0  0  0  0  0  0  0  0
    0.0324   -1.4568    0.0000 C   0  0  0  0  0  0  0  0  0  0  0  0
   -0.8316   -0.9536    0.0000 C   0  0  0  0  0  0  0  0  0  0  0  0
   -0.8282    0.0464    0.0000 C   0  0  0  0  0  0  0  0  0  0  0  0
   -1.6924    0.5496    0.0000 O   0  0  0  0  0  0  0  0  0  0  0  0
   -1.6888    1.5494    0.0000 C   0  0  0  0  0  0  0  0  0  0  0  0
   -2.5528    2.0526    0.0000 C   0  0  0  0  0  0  0  0  0  0  0  0
   -2.5494    3.0526    0.0000 C   0  0  0  0  0  0  0  0  0  0  0  0
   -1.6816    3.5494    0.0000 C   0  0  0  0  0  0  0  0  0  0  0  0
   -1.6780    4.5494    0.0000 O   0  0  0  0  0  0  0  0  0  0  0  0
   -0.8100    5.0462    0.0000 R   0  0  0  0  0  0  0  0  0  0  0  0
   -0.8174    3.0462    0.0000 C   0  0  0  0  0  0  0  0  0  0  0  0
   -0.8208    2.0464    0.0000 C   0  0  0  0  0  0  0  0  0  0  0  0
    0.0396    0.5434    0.0000 C   0  0  0  0  0  0  0  0  0  0  0  0
    0.9038    0.0402    0.0000 C   0  0  0  0  0  0  0  0  0  0  0  0
    2.6250   -2.9660    0.0000 C   0  0  0  0  0  0  0  0  0  0  0  0
    2.6214   -3.9658    0.0000 R   0  0  0  0  0  0  0  0  0  0  0  0
    3.4928   -2.4690    0.0000 O   0  0  0  0  0  0  0  0  0  0  0  0
  1  2  1  0
  2  3  1  0
  2  4  1  0
  4  5  1  1
  5  6  1  0
  6  7  1  0
  7  8  2  0
  8  9  1  0
  9 10  1  0
 10 11  1  0
 11 12  1  0
 12 13  2  0
 13 14  1  0
 14 15  1  0
 15 16  1  0
 14 17  2  0
 17 18  1  0
  9 19  2  0
 19 20  1  0
  4 21  1  0
 21 22  1  0
 21 23  2  0
 20  6  2  0
 18 11  2  0
M  ISO  4   1   1   3   3  16   4  22   2
V    1 *
V    3 *
V   16 *
V   22 *
M  END
>  <symbol>  (201) 
Tyr_Ph4OH

>  <m_Rgroups>  (201) 
[H],[OH],[H],[H],None,None

>  <m_abbr>  (201) 
Tyr_Ph4OH

>  <m_name>  (201) 
(2S)-2-amino-3-[4-(4-hydroxyphenoxy)phenyl]propanoic acid

>  <m_type>  (201) 
aa

>  <m_subtype>  (201) 
natural

>  <m_chem_types>  (201) 
1:backbone_n,2:backbone_c,3:backbone_n_mod,4:hydroxyl_phenolic

$$$$

     RDKit          2D

 19 19  0  0  0  0  0  0  0  0999 V2000
    0.5816   -3.0284    0.0000 R   0  0  0  0  0  0  0  0  0  0  0  0
    0.5852   -2.0284    0.0000 N   0  0  0  0  0  0  0  0  0  0  0  0
   -0.2790   -1.5252    0.0000 R   0  0  0  0  0  0  0  0  0  0  0  0
    1.4530   -1.5314    0.0000 C   0  0  0  0  0  0  0  0  0  0  0  0
    1.4566   -0.5314    0.0000 C   0  0  0  0  0  0  0  0  0  0  0  0
    0.5926   -0.0284    0.0000 C   0  0  0  0  0  0  0  0  0  0  0  0
   -0.2754   -0.5254    0.0000 C   0  0  0  0  0  0  0  0  0  0  0  0
   -1.1396   -0.0222    0.0000 C   0  0  0  0  0  0  0  0  0  0  0  0
   -1.1360    0.9778    0.0000 C   0  0  0  0  0  0  0  0  0  0  0  0
   -2.0002    1.4808    0.0000 O   0  0  0  0  0  0  0  0  0  0  0  0
   -1.9966    2.4808    0.0000 S   0  0  0  0  0  0  0  0  0  0  0  0
   -0.9966    2.4772    0.0000 O   0  0  0  0  0  0  0  0  0  0  0  0
   -2.9966    2.4844    0.0000 O   0  0  0  0  0  0  0  0  0  0  0  0
   -1.9930    3.4808    0.0000 O   0  0  0  0  0  0  0  0  0  0  0  0
   -0.2682    1.4748    0.0000 C   0  0  0  0  0  0  0  0  0  0  0  0
    0.5960    0.9716    0.0000 C   0  0  0  0  0  0  0  0  0  0  0  0
    2.3172   -2.0346    0.0000 C   0  0  0  0  0  0  0  0  0  0  0  0
    2.3136   -3.0346    0.0000 R   0  0  0  0  0  0  0  0  0  0  0  0
    3.1850   -1.5376    0.0000 O   0  0  0  0  0  0  0  0  0  0  0  0
  1  2  1  0
  2  3  1  0
  2  4  1  0
  4  5  1  1
  5  6  1  0
  6  7  1  0
  7  8  2  0
  8  9  1  0
  9 10  1  0
 10 11  1  0
 11 12  2  0
 11 13  2  0
 11 14  1  0
  9 15  2  0
 15 16  1  0
  4 17  1  0
 17 18  1  0
 17 19  2  0
 16  6  2  0
M  ISO  3   1   1   3   3  18   2
V    1 *
V    3 *
V   18 *
M  END
>  <symbol>  (202) 
Tyr_SO3H

>  <m_Rgroups>  (202) 
[H],[OH],[H],None,None,None

>  <m_abbr>  (202) 
Tyr_SO3H

>  <m_name>  (202) 
(2S)-2-amino-3-[4-(sulfooxy)phenyl]propanoic acid

>  <m_type>  (202) 
aa

>  <m_subtype>  (202) 
natural

>  <m_chem_types>  (202) 
1:backbone_n,2:backbone_c,3:backbone_n_mod

$$$$

     RDKit          2D

 12 11  0  0  0  0  0  0  0  0999 V2000
   -0.8817    1.8239    0.0000 R   0  0  0  0  0  0  0  0  0  0  0  0
   -0.8837    0.8239    0.0000 N   0  0  0  0  0  0  0  0  0  0  0  0
   -1.7507    0.3257    0.0000 R   0  0  0  0  0  0  0  0  0  0  0  0
   -0.0187    0.3221    0.0000 C   0  0  0  0  0  0  0  0  0  0  0  0
    0.8483    0.8205    0.0000 C   0  0  0  0  0  0  0  0  0  0  0  0
    1.7133    0.3187    0.0000 R   0  0  0  0  0  0  0  0  0  0  0  0
    0.8503    1.8205    0.0000 O   0  0  0  0  0  0  0  0  0  0  0  0
   -0.0207   -0.6779    0.0000 C   0  0  0  0  0  0  0  0  0  0  0  0
   -1.0207   -0.6757    0.0000 C   0  0  0  0  0  0  0  0  0  0  0  0
   -0.5223   -1.5429    0.0000 C   0  0  0  0  0  0  0  0  0  0  0  0
    0.8443   -1.1795    0.0000 O   0  0  0  0  0  0  0  0  0  0  0  0
    0.8423   -2.1795    0.0000 R   0  0  0  0  0  0  0  0  0  0  0  0
  1  2  1  0
  2  3  1  0
  4  2  1  6
  4  5  1  0
  5  6  1  0
  5  7  2  0
  4  8  1  0
  8  9  1  0
  8 10  1  0
  8 11  1  0
 11 12  1  0
M  ISO  4   1   1   3   3   6   2  12   4
V    1 *
V    3 *
V    6 *
V   12 *
M  END
>  <symbol>  (203) 
Val_3OH

>  <m_Rgroups>  (203) 
[H],[OH],[H],[H],None,None

>  <m_abbr>  (203) 
Val_3OH

>  <m_name>  (203) 
(2S)-2-amino-3-hydroxy-3-methylbutanoic acid

>  <m_type>  (203) 
aa

>  <m_subtype>  (203) 
natural

>  <m_chem_types>  (203) 
1:backbone_n,2:backbone_c,3:backbone_n_mod,4:hydroxyl

$$$$

     RDKit          2D

 11 10  0  0  0  0  0  0  0  0999 V2000
   -0.9413    1.7290    0.0000 R   0  0  0  0  0  0  0  0  0  0  0  0
   -0.9433    0.7292    0.0000 N   0  0  0  0  0  0  0  0  0  0  0  0
   -1.8103    0.2308    0.0000 R   0  0  0  0  0  0  0  0  0  0  0  0
   -0.0783    0.2274    0.0000 C   0  0  0  0  0  0  0  0  0  0  0  0
    0.7887    0.7256    0.0000 C   0  0  0  0  0  0  0  0  0  0  0  0
    1.6537    0.2240    0.0000 R   0  0  0  0  0  0  0  0  0  0  0  0
    0.7907    1.7256    0.0000 O   0  0  0  0  0  0  0  0  0  0  0  0
   -0.0803   -0.7726    0.0000 C   0  0  0  0  0  0  0  0  0  0  0  0
   -0.9473   -1.2708    0.0000 C   0  0  0  0  0  0  0  0  0  0  0  0
    0.7847   -1.2742    0.0000 C   0  0  0  0  0  0  0  0  0  0  0  0
    0.7827   -2.2742    0.0000 C   0  0  0  0  0  0  0  0  0  0  0  0
  1  2  1  0
  2  3  1  0
  2  4  1  0
  4  5  1  0
  5  6  1  0
  5  7  2  0
  4  8  1  6
  8  9  1  0
  8 10  1  0
 10 11  1  0
M  ISO  3   1   1   3   3   6   2
V    1 *
V    3 *
V    6 *
M  END
>  <symbol>  (204) 
xiIle

>  <m_Rgroups>  (204) 
[H],[OH],[H],None,None,None

>  <m_abbr>  (204) 
xiIle

>  <m_name>  (204) 
(2S)-2-amino-3-methylpentanoic acid

>  <m_type>  (204) 
aa

>  <m_subtype>  (204) 
natural

>  <m_chem_types>  (204) 
1:backbone_n,2:backbone_c,3:backbone_n_mod

$$$$

     RDKit          2D

 15 15  0  0  0  0  0  0  0  0999 V2000
   -1.1656   -1.1028    0.0000 R   0  0  0  0  0  0  0  0  0  0  0  0
   -0.2002   -1.3634    0.0000 N   0  0  0  0  0  0  0  0  0  0  0  0
    0.0568   -2.3296    0.0000 R   0  0  0  0  0  0  0  0  0  0  0  0
    0.5082   -0.6574    0.0000 C   0  0  0  0  0  0  0  0  0  0  0  0
   -0.4574   -0.3970    0.0000 C   0  0  0  0  0  0  0  0  0  0  0  0
    0.7686    0.3080    0.0000 C   0  0  0  0  0  0  0  0  0  0  0  0
    0.0628    1.0164    0.0000 C   0  0  0  0  0  0  0  0  0  0  0  0
   -0.9036    0.7592    0.0000 C   0  0  0  0  0  0  0  0  0  0  0  0
   -1.6094    1.4676    0.0000 C   0  0  0  0  0  0  0  0  0  0  0  0
   -1.3488    2.4330    0.0000 C   0  0  0  0  0  0  0  0  0  0  0  0
   -0.3824    2.6900    0.0000 C   0  0  0  0  0  0  0  0  0  0  0  0
    0.3234    1.9818    0.0000 C   0  0  0  0  0  0  0  0  0  0  0  0
    1.2140   -1.3658    0.0000 C   0  0  0  0  0  0  0  0  0  0  0  0
    0.9534   -2.3312    0.0000 R   0  0  0  0  0  0  0  0  0  0  0  0
    2.1804   -1.1088    0.0000 O   0  0  0  0  0  0  0  0  0  0  0  0
  1  2  1  0
  2  3  1  0
  2  4  1  0
  4  5  1  6
  4  6  1  0
  6  7  1  0
  7  8  2  0
  8  9  1  0
  9 10  2  0
 10 11  1  0
 11 12  2  0
  4 13  1  0
 13 14  1  0
 13 15  2  0
 12  7  1  0
M  ISO  3   1   1   3   3  14   2
V    1 *
V    3 *
V   14 *
M  END
>  <symbol>  (205) 
aMePhe

>  <m_Rgroups>  (205) 
[H],[OH],[H],None,None,None

>  <m_abbr>  (205) 
aMePhe

>  <m_name>  (205) 
(2S)-2-amino-2-methyl-3-phenylpropanoic acid

>  <m_type>  (205) 
aa

>  <m_subtype>  (205) 
natural

>  <m_chem_types>  (205) 
1:backbone_n,2:backbone_c,3:backbone_n_mod

$$$$

     RDKit          2D

 10 10  0  0  0  0  0  0  0  0999 V2000
   -0.3376   -1.3559    0.0000 R   0  0  0  0  0  0  0  0  0  0  0  0
   -0.5478   -0.3781    0.0000 N   0  0  0  0  0  0  0  0  0  0  0  0
   -1.4622    0.0265    0.0000 C   0  0  0  0  0  0  0  0  0  0  0  0
   -1.3598    1.0213    0.0000 C   0  0  0  0  0  0  0  0  0  0  0  0
   -0.3822    1.2313    0.0000 C   0  0  0  0  0  0  0  0  0  0  0  0
    0.1198    0.3665    0.0000 C   0  0  0  0  0  0  0  0  0  0  0  0
    0.9276    0.9561    0.0000 C   0  0  0  0  0  0  0  0  0  0  0  0
    0.7906   -0.3753    0.0000 C   0  0  0  0  0  0  0  0  0  0  0  0
    0.4836   -1.3269    0.0000 R   0  0  0  0  0  0  0  0  0  0  0  0
    1.7682   -0.1651    0.0000 O   0  0  0  0  0  0  0  0  0  0  0  0
  1  2  1  0
  2  3  1  0
  3  4  1  0
  4  5  1  0
  5  6  1  0
  6  7  1  6
  6  8  1  0
  8  9  1  0
  8 10  2  0
  6  2  1  0
M  ISO  2   1   1   9   2
V    1 *
V    9 *
M  END
>  <symbol>  (206) 
aMePro

>  <m_Rgroups>  (206) 
[H],[OH],None,None,None,None

>  <m_abbr>  (206) 
aMePro

>  <m_name>  (206) 
(2S)-2-methylpyrrolidine-2-carboxylic acid

>  <m_type>  (206) 
aa

>  <m_subtype>  (206) 
natural

>  <m_chem_types>  (206) 
1:backbone_n,2:backbone_c

$$$$

     RDKit          2D

 19 19  0  0  0  0  0  0  0  0999 V2000
   -0.8405   -1.8458    0.0000 R   0  0  0  0  0  0  0  0  0  0  0  0
    0.1261   -2.1020    0.0000 N   0  0  0  0  0  0  0  0  0  0  0  0
    0.3875   -3.0672    0.0000 R   0  0  0  0  0  0  0  0  0  0  0  0
    0.8313   -1.3932    0.0000 C   0  0  0  0  0  0  0  0  0  0  0  0
   -0.1353   -1.1368    0.0000 C   0  0  0  0  0  0  0  0  0  0  0  0
    1.0877   -0.4266    0.0000 C   0  0  0  0  0  0  0  0  0  0  0  0
    0.3787    0.2788    0.0000 C   0  0  0  0  0  0  0  0  0  0  0  0
   -0.5865    0.0174    0.0000 C   0  0  0  0  0  0  0  0  0  0  0  0
   -1.2953    0.7226    0.0000 C   0  0  0  0  0  0  0  0  0  0  0  0
   -1.0391    1.6892    0.0000 C   0  0  0  0  0  0  0  0  0  0  0  0
   -1.7479    2.3946    0.0000 O   0  0  0  0  0  0  0  0  0  0  0  0
   -2.7133    2.1332    0.0000 R   0  0  0  0  0  0  0  0  0  0  0  0
   -0.0739    1.9506    0.0000 C   0  0  0  0  0  0  0  0  0  0  0  0
    0.1825    2.9172    0.0000 O   0  0  0  0  0  0  0  0  0  0  0  0
   -0.5265    3.6224    0.0000 R   0  0  0  0  0  0  0  0  0  0  0  0
    0.6351    1.2454    0.0000 C   0  0  0  0  0  0  0  0  0  0  0  0
    1.5403   -2.0984    0.0000 C   0  0  0  0  0  0  0  0  0  0  0  0
    1.2839   -3.0650    0.0000 R   0  0  0  0  0  0  0  0  0  0  0  0
    2.5055   -1.8370    0.0000 O   0  0  0  0  0  0  0  0  0  0  0  0
  1  2  1  0
  2  3  1  0
  2  4  1  0
  4  5  1  6
  4  6  1  0
  6  7  1  0
  7  8  1  0
  8  9  2  0
  9 10  1  0
 10 11  1  0
 11 12  1  0
 10 13  2  0
 13 14  1  0
 14 15  1  0
 13 16  1  0
  4 17  1  0
 17 18  1  0
 17 19  2  0
 16  7  2  0
M  ISO  5   1   1   3   3  12   4  15   5  18   2
V    1 *
V    3 *
V   12 *
V   15 *
V   18 *
M  END
>  <symbol>  (207) 
aMeTyr_3OH

>  <m_Rgroups>  (207) 
[H],[OH],[H],[H],[H],None

>  <m_abbr>  (207) 
aMeTyr_3OH

>  <m_name>  (207) 
(2S)-2-amino-3-(3,4-dihydroxyphenyl)-2-methylpropanoic acid

>  <m_type>  (207) 
aa

>  <m_subtype>  (207) 
natural

>  <m_chem_types>  (207) 
1:backbone_n,2:backbone_c,3:backbone_n_mod,4:hydroxyl_phenolic,5:hydroxyl_phenolic

$$$$

     RDKit          2D

 16 15  0  0  0  0  0  0  0  0999 V2000
   -1.3480    2.5965    0.0000 R   0  0  0  0  0  0  0  0  0  0  0  0
   -1.3500    1.5965    0.0000 N   0  0  0  0  0  0  0  0  0  0  0  0
   -2.2170    1.0981    0.0000 R   0  0  0  0  0  0  0  0  0  0  0  0
   -0.4850    1.0947    0.0000 C   0  0  0  0  0  0  0  0  0  0  0  0
    0.3822    1.5931    0.0000 C   0  0  0  0  0  0  0  0  0  0  0  0
    1.2472    1.0913    0.0000 R   0  0  0  0  0  0  0  0  0  0  0  0
    0.3842    2.5929    0.0000 O   0  0  0  0  0  0  0  0  0  0  0  0
   -0.4870    0.0947    0.0000 C   0  0  0  0  0  0  0  0  0  0  0  0
   -1.3540   -0.4035    0.0000 O   0  0  0  0  0  0  0  0  0  0  0  0
   -1.3560   -1.4035    0.0000 R   0  0  0  0  0  0  0  0  0  0  0  0
    0.3780   -0.4069    0.0000 C   0  0  0  0  0  0  0  0  0  0  0  0
    1.2450    0.0913    0.0000 C   0  0  0  0  0  0  0  0  0  0  0  0
    0.3760   -1.4069    0.0000 C   0  0  0  0  0  0  0  0  0  0  0  0
    1.2410   -1.9087    0.0000 C   0  0  0  0  0  0  0  0  0  0  0  0
    1.2390   -2.9087    0.0000 C   0  0  0  0  0  0  0  0  0  0  0  0
    2.1040   -3.4103    0.0000 C   0  0  0  0  0  0  0  0  0  0  0  0
  1  2  1  0
  2  3  1  0
  4  2  1  6
  4  5  1  0
  5  6  1  0
  5  7  2  0
  4  8  1  0
  8  9  1  1
  9 10  1  0
  8 11  1  0
 11 12  1  6
 11 13  1  0
 13 14  1  0
 14 15  2  3
 15 16  1  0
M  ISO  4   1   1   3   3   6   2  10   4
V    1 *
V    3 *
V    6 *
V   10 *
M  END
>  <symbol>  (208) 
Bmt

>  <m_Rgroups>  (208) 
[H],[OH],[H],[H],None,None

>  <m_abbr>  (208) 
Bmt

>  <m_name>  (208) 
(2S,3R,4R)-2-amino-3-hydroxy-4-methyloct-6-enoic acid

>  <m_type>  (208) 
aa

>  <m_subtype>  (208) 
natural

>  <m_chem_types>  (208) 
1:backbone_n,2:backbone_c,3:backbone_n_mod,4:hydroxyl

$$$$

     RDKit          2D

 16 15  0  0  0  0  0  0  0  0999 V2000
   -1.3480    2.5965    0.0000 R   0  0  0  0  0  0  0  0  0  0  0  0
   -1.3500    1.5965    0.0000 N   0  0  0  0  0  0  0  0  0  0  0  0
   -2.2170    1.0981    0.0000 R   0  0  0  0  0  0  0  0  0  0  0  0
   -0.4850    1.0947    0.0000 C   0  0  0  0  0  0  0  0  0  0  0  0
    0.3822    1.5931    0.0000 C   0  0  0  0  0  0  0  0  0  0  0  0
    1.2472    1.0913    0.0000 R   0  0  0  0  0  0  0  0  0  0  0  0
    0.3842    2.5929    0.0000 O   0  0  0  0  0  0  0  0  0  0  0  0
   -0.4870    0.0947    0.0000 C   0  0  0  0  0  0  0  0  0  0  0  0
   -1.3540   -0.4035    0.0000 O   0  0  0  0  0  0  0  0  0  0  0  0
   -1.3560   -1.4035    0.0000 R   0  0  0  0  0  0  0  0  0  0  0  0
    0.3780   -0.4069    0.0000 C   0  0  0  0  0  0  0  0  0  0  0  0
    1.2450    0.0913    0.0000 C   0  0  0  0  0  0  0  0  0  0  0  0
    0.3760   -1.4069    0.0000 C   0  0  0  0  0  0  0  0  0  0  0  0
    1.2410   -1.9087    0.0000 C   0  0  0  0  0  0  0  0  0  0  0  0
    1.2390   -2.9087    0.0000 C   0  0  0  0  0  0  0  0  0  0  0  0
    2.1040   -3.4103    0.0000 C   0  0  0  0  0  0  0  0  0  0  0  0
  1  2  1  0
  2  3  1  0
  4  2  1  6
  4  5  1  0
  5  6  1  0
  5  7  2  0
  4  8  1  0
  8  9  1  1
  9 10  1  0
  8 11  1  0
 11 12  1  6
 11 13  1  0
 13 14  1  0
 14 15  2  0
 15 16  1  0
M  ISO  4   1   1   3   3   6   2  10   4
V    1 *
V    3 *
V    6 *
V   10 *
M  END
>  <symbol>  (209) 
Bmt_E

>  <m_Rgroups>  (209) 
[H],[OH],[H],[H],None,None

>  <m_abbr>  (209) 
Bmt_E

>  <m_name>  (209) 
(2S,3R,4R,6E)-2-amino-3-hydroxy-4-methyloct-6-enoic acid

>  <m_type>  (209) 
aa

>  <m_subtype>  (209) 
natural

>  <m_chem_types>  (209) 
1:backbone_n,2:backbone_c,3:backbone_n_mod,4:hydroxyl

$$$$

     RDKit          2D

 16 16  0  0  0  0  0  0  0  0999 V2000
   -1.9428    2.8788    0.0000 R   0  0  0  0  0  0  0  0  0  0  0  0
   -1.9448    1.8788    0.0000 N   0  0  0  0  0  0  0  0  0  0  0  0
   -2.8118    1.3806    0.0000 R   0  0  0  0  0  0  0  0  0  0  0  0
   -1.0798    1.3772    0.0000 C   0  0  0  0  0  0  0  0  0  0  0  0
   -1.0818    0.3772    0.0000 C   0  0  0  0  0  0  0  0  0  0  0  0
   -0.2168   -0.1246    0.0000 S   0  0  0  0  0  0  0  0  0  0  0  0
   -0.2188   -1.1246    0.0000 C   0  0  0  0  0  0  0  0  0  0  0  0
    0.6462   -1.6262    0.0000 C   0  0  0  0  0  0  0  0  0  0  0  0
    0.6442   -2.6262    0.0000 C   0  0  0  0  0  0  0  0  0  0  0  0
    1.5092   -3.1280    0.0000 C   0  0  0  0  0  0  0  0  0  0  0  0
    2.3764   -2.6298    0.0000 C   0  0  0  0  0  0  0  0  0  0  0  0
    2.3782   -1.6298    0.0000 C   0  0  0  0  0  0  0  0  0  0  0  0
    1.5132   -1.1280    0.0000 C   0  0  0  0  0  0  0  0  0  0  0  0
   -0.2128    1.8754    0.0000 C   0  0  0  0  0  0  0  0  0  0  0  0
    0.6522    1.3736    0.0000 R   0  0  0  0  0  0  0  0  0  0  0  0
   -0.2108    2.8754    0.0000 O   0  0  0  0  0  0  0  0  0  0  0  0
  1  2  1  0
  2  3  1  0
  2  4  1  0
  4  5  1  6
  5  6  1  0
  6  7  1  0
  7  8  1  0
  8  9  2  0
  9 10  1  0
 10 11  2  0
 11 12  1  0
 12 13  2  0
  4 14  1  0
 14 15  1  0
 14 16  2  0
 13  8  1  0
M  ISO  3   1   1   3   3  15   2
V    1 *
V    3 *
V   15 *
M  END
>  <symbol>  (210) 
Cys_Bn

>  <m_Rgroups>  (210) 
[H],[OH],[H],None,None,None

>  <m_abbr>  (210) 
Cys_Bn

>  <m_name>  (210) 
(2R)-2-amino-3-(benzylsulfanyl)propanoic acid

>  <m_type>  (210) 
aa

>  <m_subtype>  (210) 
natural

>  <m_chem_types>  (210) 
1:backbone_n,2:backbone_c,3:backbone_n_mod

$$$$

     RDKit          2D

 15 14  0  0  0  0  0  0  0  0999 V2000
   -1.3344    2.4001    0.0000 R   0  0  0  0  0  0  0  0  0  0  0  0
   -1.3998    1.3917    0.0000 N   0  0  0  0  0  0  0  0  0  0  0  0
   -2.3036    0.9589    0.0000 R   0  0  0  0  0  0  0  0  0  0  0  0
   -0.5372    0.8191    0.0000 C   0  0  0  0  0  0  0  0  0  0  0  0
   -0.6512   -0.3371    0.0000 C   0  0  0  0  0  0  0  0  0  0  0  0
    0.1526   -1.0289    0.0000 C   0  0  0  0  0  0  0  0  0  0  0  0
    0.9596   -0.6857    0.0000 C   0  0  0  0  0  0  0  0  0  0  0  0
    1.7862   -1.2677    0.0000 R   0  0  0  0  0  0  0  0  0  0  0  0
    1.0148    0.2401    0.0000 O   0  0  0  0  0  0  0  0  0  0  0  0
    0.0616   -2.0785    0.0000 C   0  0  0  0  0  0  0  0  0  0  0  0
    0.9076   -2.6509    0.0000 R   0  0  0  0  0  0  0  0  0  0  0  0
   -0.8274   -2.5315    0.0000 O   0  0  0  0  0  0  0  0  0  0  0  0
    0.4290    1.4005    0.0000 C   0  0  0  0  0  0  0  0  0  0  0  0
    1.3622    0.9571    0.0000 R   0  0  0  0  0  0  0  0  0  0  0  0
    0.3800    2.4133    0.0000 O   0  0  0  0  0  0  0  0  0  0  0  0
  1  2  1  0
  2  3  1  0
  2  4  1  0
  4  5  1  6
  5  6  1  0
  6  7  1  0
  7  8  1  0
  7  9  2  0
  6 10  1  0
 10 11  1  0
 10 12  2  0
  4 13  1  0
 13 14  1  0
 13 15  2  0
M  ISO  5   1   1   3   3   8   2  11   4  14   5
V    1 *
V    3 *
V    8 *
V   11 *
V   14 *
M  END
>  <symbol>  (211) 
Gla

>  <m_Rgroups>  (211) 
[H],[OH],[H],[OH],[H],None

>  <m_abbr>  (211) 
Gla

>  <m_name>  (211) 
Carboxyglutamic acid

>  <m_type>  (211) 
aa

>  <m_subtype>  (211) 
natural

>  <m_chem_types>  (211) 
1:backbone_n,2:backbone_c,3:backbone_n_mod,4:carboxyl,5:aldehyde

$$$$

     RDKit          2D

 15 15  0  0  0  0  0  0  0  0999 V2000
   -1.3333   -2.8443    0.0000 R   0  0  0  0  0  0  0  0  0  0  0  0
   -1.3365   -1.8443    0.0000 N   0  0  0  0  0  0  0  0  0  0  0  0
   -2.2041   -1.3469    0.0000 R   0  0  0  0  0  0  0  0  0  0  0  0
   -0.4723   -1.3415    0.0000 C   0  0  0  0  0  0  0  0  0  0  0  0
   -0.4755   -0.3415    0.0000 C   0  0  0  0  0  0  0  0  0  0  0  0
    0.3889    0.1611    0.0000 C   0  0  0  0  0  0  0  0  0  0  0  0
    0.3857    1.1611    0.0000 C   0  0  0  0  0  0  0  0  0  0  0  0
    1.1927    1.7515    0.0000 C   0  0  0  0  0  0  0  0  0  0  0  0
    0.8805    2.7017    0.0000 N   0  0  0  0  0  0  0  0  0  0  0  0
    1.4657    3.5125    0.0000 R   0  0  0  0  0  0  0  0  0  0  0  0
   -0.1193    2.6981    0.0000 C   0  0  0  0  0  0  0  0  0  0  0  0
   -0.4255    1.7463    0.0000 N   0  0  0  0  0  0  0  0  0  0  0  0
    0.3953   -1.8389    0.0000 C   0  0  0  0  0  0  0  0  0  0  0  0
    0.3987   -2.8389    0.0000 R   0  0  0  0  0  0  0  0  0  0  0  0
    1.2597   -1.3361    0.0000 O   0  0  0  0  0  0  0  0  0  0  0  0
  1  2  1  0
  2  3  1  0
  2  4  1  0
  4  5  1  1
  5  6  1  0
  6  7  1  0
  7  8  2  0
  8  9  1  0
  9 10  1  0
  9 11  1  0
 11 12  2  0
  4 13  1  0
 13 14  1  0
 13 15  2  0
 12  7  1  0
M  ISO  4   1   1   3   3  10   4  14   2
V    1 *
V    3 *
V   10 *
V   14 *
M  END
>  <symbol>  (212) 
hHis

>  <m_Rgroups>  (212) 
[H],[OH],[H],[H],None,None

>  <m_abbr>  (212) 
hHis

>  <m_name>  (212) 
(2S)-2-amino-4-(1H-imidazol-4-yl)butanoic acid

>  <m_type>  (212) 
aa

>  <m_subtype>  (212) 
natural

>  <m_chem_types>  (212) 
1:backbone_n,2:backbone_c,3:backbone_n_mod,4:aromatic_nh

$$$$

     RDKit          2D

 14 14  0  0  0  0  0  0  0  0999 V2000
   -0.1344   -2.2309    0.0000 R   0  0  0  0  0  0  0  0  0  0  0  0
   -0.1304   -1.2309    0.0000 N   0  0  0  0  0  0  0  0  0  0  0  0
   -0.9944   -0.7275    0.0000 R   0  0  0  0  0  0  0  0  0  0  0  0
    0.7378   -0.7345    0.0000 C   0  0  0  0  0  0  0  0  0  0  0  0
    0.7418    0.2655    0.0000 C   0  0  0  0  0  0  0  0  0  0  0  0
   -0.1222    0.7689    0.0000 C   0  0  0  0  0  0  0  0  0  0  0  0
   -0.2228    1.7637    0.0000 C   0  0  0  0  0  0  0  0  0  0  0  0
   -1.2004    1.9755    0.0000 N   0  0  0  0  0  0  0  0  0  0  0  0
   -1.6034    2.8905    0.0000 C   0  0  0  0  0  0  0  0  0  0  0  0
   -1.7034    1.1115    0.0000 C   0  0  0  0  0  0  0  0  0  0  0  0
   -1.0376    0.3655    0.0000 N   0  0  0  0  0  0  0  0  0  0  0  0
    1.6018   -1.2379    0.0000 C   0  0  0  0  0  0  0  0  0  0  0  0
    1.5978   -2.2377    0.0000 R   0  0  0  0  0  0  0  0  0  0  0  0
    2.4698   -0.7415    0.0000 O   0  0  0  0  0  0  0  0  0  0  0  0
  1  2  1  0
  2  3  1  0
  2  4  1  0
  4  5  1  1
  5  6  1  0
  6  7  2  0
  7  8  1  0
  8  9  1  0
  8 10  1  0
 10 11  2  0
  4 12  1  0
 12 13  1  0
 12 14  2  0
 11  6  1  0
M  ISO  3   1   1   3   3  13   2
V    1 *
V    3 *
V   13 *
M  END
>  <symbol>  (213) 
His_1Me

>  <m_Rgroups>  (213) 
[H],[OH],[H],None,None,None

>  <m_abbr>  (213) 
His_1Me

>  <m_name>  (213) 
(2S)-2-amino-3-(1-methyl-1H-imidazol-4-yl)propanoic acid

>  <m_type>  (213) 
aa

>  <m_subtype>  (213) 
natural

>  <m_chem_types>  (213) 
1:backbone_n,2:backbone_c,3:backbone_n_mod

$$$$

     RDKit          2D

 11 10  0  0  0  0  0  0  0  0999 V2000
   -1.1775    1.6841    0.0000 R   0  0  0  0  0  0  0  0  0  0  0  0
   -1.1795    0.6841    0.0000 N   0  0  0  0  0  0  0  0  0  0  0  0
   -2.0465    0.1859    0.0000 R   0  0  0  0  0  0  0  0  0  0  0  0
   -0.3145    0.1825    0.0000 C   0  0  0  0  0  0  0  0  0  0  0  0
   -0.3165   -0.8175    0.0000 C   0  0  0  0  0  0  0  0  0  0  0  0
    0.5485   -1.3193    0.0000 C   0  0  0  0  0  0  0  0  0  0  0  0
    0.5465   -2.3193    0.0000 R   0  0  0  0  0  0  0  0  0  0  0  0
    1.4155   -0.8209    0.0000 C   0  0  0  0  0  0  0  0  0  0  0  0
    0.5525    0.6807    0.0000 C   0  0  0  0  0  0  0  0  0  0  0  0
    1.4175    0.1789    0.0000 R   0  0  0  0  0  0  0  0  0  0  0  0
    0.5545    1.6807    0.0000 O   0  0  0  0  0  0  0  0  0  0  0  0
  1  2  1  0
  2  3  1  0
  2  4  1  0
  4  5  1  6
  5  6  1  0
  6  7  1  0
  6  8  2  0
  4  9  1  0
  9 10  1  0
  9 11  2  0
M  ISO  4   1   1   3   3   7   4  10   2
V    1 *
V    3 *
V    7 *
V   10 *
M  END
>  <symbol>  (214) 
Gly_allyl

>  <m_Rgroups>  (214) 
[H],[OH],[H],[H],None,None

>  <m_abbr>  (214) 
Gly_allyl

>  <m_name>  (214) 
(2S)-2-aminopent-4-enoic acid

>  <m_type>  (214) 
aa

>  <m_subtype>  (214) 
natural

>  <m_chem_types>  (214) 
1:backbone_n,2:backbone_c,3:backbone_n_mod,4:terminal_alkene

$$$$

     RDKit          2D

 10 10  0  0  0  0  0  0  0  0999 V2000
   -0.8590   -1.5770    0.0000 R   0  0  0  0  0  0  0  0  0  0  0  0
   -0.8634   -0.5770    0.0000 N   0  0  0  0  0  0  0  0  0  0  0  0
   -1.7318   -0.0808    0.0000 R   0  0  0  0  0  0  0  0  0  0  0  0
    0.0004   -0.0732    0.0000 C   0  0  0  0  0  0  0  0  0  0  0  0
    0.8686   -0.5694    0.0000 C   0  0  0  0  0  0  0  0  0  0  0  0
    0.8730   -1.5694    0.0000 R   0  0  0  0  0  0  0  0  0  0  0  0
    1.7324   -0.0656    0.0000 O   0  0  0  0  0  0  0  0  0  0  0  0
   -0.0040    0.9268    0.0000 C   0  0  0  0  0  0  0  0  0  0  0  0
    0.4922    1.7950    0.0000 C   0  0  0  0  0  0  0  0  0  0  0  0
   -0.5080    1.7906    0.0000 C   0  0  0  0  0  0  0  0  0  0  0  0
  1  2  1  0
  2  3  1  0
  4  2  1  1
  4  5  1  0
  5  6  1  0
  5  7  2  0
  4  8  1  0
  8  9  1  0
  9 10  1  0
 10  8  1  0
M  ISO  3   1   1   3   3   6   2
V    1 *
V    3 *
V    6 *
M  END
>  <symbol>  (215) 
Gly_cPr

>  <m_Rgroups>  (215) 
[H],[OH],[H],None,None,None

>  <m_abbr>  (215) 
Gly_cPr

>  <m_name>  (215) 
(2S)-2-amino-2-cyclopropylacetic acid

>  <m_type>  (215) 
aa

>  <m_subtype>  (215) 
natural

>  <m_chem_types>  (215) 
1:backbone_n,2:backbone_c,3:backbone_n_mod

$$$$

     RDKit          2D

 19 19  0  0  0  0  0  0  0  0999 V2000
    0.0107   -2.9474    0.0000 R   0  0  0  0  0  0  0  0  0  0  0  0
    0.0071   -1.9474    0.0000 N   0  0  0  0  0  0  0  0  0  0  0  0
   -0.8609   -1.4504    0.0000 R   0  0  0  0  0  0  0  0  0  0  0  0
    0.8713   -1.4442    0.0000 C   0  0  0  0  0  0  0  0  0  0  0  0
    0.8677   -0.4442    0.0000 C   0  0  0  0  0  0  0  0  0  0  0  0
   -0.0003    0.0526    0.0000 C   0  0  0  0  0  0  0  0  0  0  0  0
   -0.8645   -0.4504    0.0000 O   0  0  0  0  0  0  0  0  0  0  0  0
   -0.0039    1.0526    0.0000 C   0  0  0  0  0  0  0  0  0  0  0  0
    0.8603    1.5558    0.0000 C   0  0  0  0  0  0  0  0  0  0  0  0
    0.8569    2.5556    0.0000 C   0  0  0  0  0  0  0  0  0  0  0  0
   -0.0111    3.0526    0.0000 C   0  0  0  0  0  0  0  0  0  0  0  0
   -0.8751    2.5494    0.0000 C   0  0  0  0  0  0  0  0  0  0  0  0
   -0.8717    1.5494    0.0000 C   0  0  0  0  0  0  0  0  0  0  0  0
   -1.7359    1.0464    0.0000 N   0  0  0  0  0  0  0  0  0  0  0  0
   -2.6037    1.5432    0.0000 R   0  0  0  0  0  0  0  0  0  0  0  0
   -1.7323    0.0464    0.0000 R   0  0  0  0  0  0  0  0  0  0  0  0
    1.7391   -1.9412    0.0000 C   0  0  0  0  0  0  0  0  0  0  0  0
    1.7427   -2.9410    0.0000 R   0  0  0  0  0  0  0  0  0  0  0  0
    2.6033   -1.4380    0.0000 O   0  0  0  0  0  0  0  0  0  0  0  0
  1  2  1  0
  2  3  1  0
  2  4  1  0
  4  5  1  1
  5  6  1  0
  6  7  2  0
  6  8  1  0
  8  9  2  0
  9 10  1  0
 10 11  2  0
 11 12  1  0
 12 13  2  0
 13 14  1  0
 14 15  1  0
 14 16  1  0
  4 17  1  0
 17 18  1  0
 17 19  2  0
 13  8  1  0
M  ISO  5   1   1   3   3  15   4  16   5  18   2
V    1 *
V    3 *
V   15 *
V   16 *
V   18 *
M  END
>  <symbol>  (216) 
Asp_Ph2NH2

>  <m_Rgroups>  (216) 
[H],[OH],[H],[H],[H],None

>  <m_abbr>  (216) 
Asp_Ph2NH2

>  <m_name>  (216) 
(2S)-2-amino-4-(2-aminophenyl)-4-oxobutanoic acid

>  <m_type>  (216) 
aa

>  <m_subtype>  (216) 
natural

>  <m_chem_types>  (216) 
1:backbone_n,2:backbone_c,3:backbone_n_mod,4:amine_primary,5:amine_secondary

$$$$

     RDKit          2D

  7  7  0  0  0  0  0  0  0  0999 V2000
   -1.7482    0.7410    0.0000 R   0  0  0  0  0  0  0  0  0  0  0  0
   -1.0400    0.0352    0.0000 N   0  0  0  0  0  0  0  0  0  0  0  0
   -0.7794   -0.9304    0.0000 C   0  0  0  0  0  0  0  0  0  0  0  0
   -0.0736   -0.2220    0.0000 C   0  0  0  0  0  0  0  0  0  0  0  0
    0.8918    0.0386    0.0000 C   0  0  0  0  0  0  0  0  0  0  0  0
    1.6002   -0.6672    0.0000 R   0  0  0  0  0  0  0  0  0  0  0  0
    1.1490    1.0050    0.0000 O   0  0  0  0  0  0  0  0  0  0  0  0
  1  2  1  0
  2  3  1  0
  3  4  1  0
  4  5  1  6
  5  6  1  0
  5  7  2  0
  4  2  1  0
M  ISO  2   1   1   6   2
V    1 *
V    6 *
M  END
>  <symbol>  (217) 
Azi

>  <m_Rgroups>  (217) 
[H],[OH],None,None,None,None

>  <m_abbr>  (217) 
Azi

>  <m_name>  (217) 
(2S)-aziridine-2-carboxylic acid

>  <m_type>  (217) 
aa

>  <m_subtype>  (217) 
natural

>  <m_chem_types>  (217) 
1:backbone_n,2:backbone_c

$$$$

     RDKit          2D

 12 12  0  0  0  0  0  0  0  0999 V2000
    1.3744    1.6221    0.0000 R   0  0  0  0  0  0  0  0  0  0  0  0
    0.5074    1.1239    0.0000 N   0  0  0  0  0  0  0  0  0  0  0  0
   -0.3576    1.6257    0.0000 R   0  0  0  0  0  0  0  0  0  0  0  0
    0.5054    0.1239    0.0000 C   0  0  0  0  0  0  0  0  0  0  0  0
    1.3704   -0.3777    0.0000 C   0  0  0  0  0  0  0  0  0  0  0  0
    1.3684   -1.3777    0.0000 C   0  0  0  0  0  0  0  0  0  0  0  0
    0.5014   -1.8759    0.0000 C   0  0  0  0  0  0  0  0  0  0  0  0
   -0.3636   -1.3743    0.0000 C   0  0  0  0  0  0  0  0  0  0  0  0
   -0.3616   -0.3743    0.0000 C   0  0  0  0  0  0  0  0  0  0  0  0
   -1.2266    0.1275    0.0000 C   0  0  0  0  0  0  0  0  0  0  0  0
   -2.0936   -0.3709    0.0000 R   0  0  0  0  0  0  0  0  0  0  0  0
   -1.2246    1.1273    0.0000 O   0  0  0  0  0  0  0  0  0  0  0  0
  1  2  1  0
  2  3  1  0
  2  4  1  0
  4  5  2  0
  5  6  1  0
  6  7  2  0
  7  8  1  0
  8  9  2  0
  9 10  1  0
 10 11  1  0
 10 12  2  0
  9  4  1  0
M  ISO  3   1   1   3   3  11   2
V    1 *
V    3 *
V   11 *
M  END
>  <symbol>  (218) 
2Abz

>  <m_Rgroups>  (218) 
[H],[OH],[H],None,None,None

>  <m_abbr>  (218) 
2Abz

>  <m_name>  (218) 
2-Aminobenzoic acid

>  <m_type>  (218) 
aa

>  <m_subtype>  (218) 
natural

>  <m_chem_types>  (218) 
1:backbone_n,2:backbone_c,3:backbone_n_mod

$$$$

     RDKit          2D

 12 12  0  0  0  0  0  0  0  0999 V2000
    1.3758    2.2056    0.0000 R   0  0  0  0  0  0  0  0  0  0  0  0
    0.5086    1.7074    0.0000 N   0  0  0  0  0  0  0  0  0  0  0  0
   -0.3564    2.2090    0.0000 R   0  0  0  0  0  0  0  0  0  0  0  0
    0.5066    0.7074    0.0000 C   0  0  0  0  0  0  0  0  0  0  0  0
    1.3716    0.2056    0.0000 C   0  0  0  0  0  0  0  0  0  0  0  0
    1.3696   -0.7944    0.0000 C   0  0  0  0  0  0  0  0  0  0  0  0
    0.5026   -1.2926    0.0000 C   0  0  0  0  0  0  0  0  0  0  0  0
   -0.3624   -0.7908    0.0000 C   0  0  0  0  0  0  0  0  0  0  0  0
   -1.2294   -1.2892    0.0000 C   0  0  0  0  0  0  0  0  0  0  0  0
   -1.2314   -2.2892    0.0000 R   0  0  0  0  0  0  0  0  0  0  0  0
   -2.0944   -0.7874    0.0000 O   0  0  0  0  0  0  0  0  0  0  0  0
   -0.3604    0.2090    0.0000 C   0  0  0  0  0  0  0  0  0  0  0  0
  1  2  1  0
  2  3  1  0
  2  4  1  0
  4  5  2  0
  5  6  1  0
  6  7  2  0
  7  8  1  0
  8  9  1  0
  9 10  1  0
  9 11  2  0
  8 12  2  0
 12  4  1  0
M  ISO  3   1   1   3   3  10   2
V    1 *
V    3 *
V   10 *
M  END
>  <symbol>  (219) 
3Abz

>  <m_Rgroups>  (219) 
[H],[OH],[H],None,None,None

>  <m_abbr>  (219) 
3Abz

>  <m_name>  (219) 
3-Aminobenzoic acid

>  <m_type>  (219) 
aa

>  <m_subtype>  (219) 
natural

>  <m_chem_types>  (219) 
1:backbone_n,2:backbone_c,3:backbone_n_mod

$$$$

     RDKit          2D

 12 12  0  0  0  0  0  0  0  0999 V2000
   -2.5984   -0.4980    0.0000 R   0  0  0  0  0  0  0  0  0  0  0  0
   -1.7328   -0.9986    0.0000 N   0  0  0  0  0  0  0  0  0  0  0  0
   -1.7336   -1.9986    0.0000 R   0  0  0  0  0  0  0  0  0  0  0  0
   -0.8664   -0.4994    0.0000 C   0  0  0  0  0  0  0  0  0  0  0  0
   -0.8656    0.5006    0.0000 C   0  0  0  0  0  0  0  0  0  0  0  0
    0.0008    1.0000    0.0000 C   0  0  0  0  0  0  0  0  0  0  0  0
    0.8664    0.4994    0.0000 C   0  0  0  0  0  0  0  0  0  0  0  0
    1.7328    0.9986    0.0000 C   0  0  0  0  0  0  0  0  0  0  0  0
    2.5984    0.4980    0.0000 R   0  0  0  0  0  0  0  0  0  0  0  0
    1.7336    1.9986    0.0000 O   0  0  0  0  0  0  0  0  0  0  0  0
    0.8656   -0.5006    0.0000 C   0  0  0  0  0  0  0  0  0  0  0  0
   -0.0008   -1.0000    0.0000 C   0  0  0  0  0  0  0  0  0  0  0  0
  1  2  1  0
  2  3  1  0
  2  4  1  0
  4  5  1  0
  5  6  2  0
  6  7  1  0
  7  8  1  0
  8  9  1  0
  8 10  2  0
  7 11  2  0
 11 12  1  0
 12  4  2  0
M  ISO  3   1   1   3   3   9   2
V    1 *
V    3 *
V    9 *
M  END
>  <symbol>  (220) 
4Abz

>  <m_Rgroups>  (220) 
[H],[OH],[H],None,None,None

>  <m_abbr>  (220) 
4Abz

>  <m_name>  (220) 
4-Aminobenzoic acid

>  <m_type>  (220) 
aa

>  <m_subtype>  (220) 
natural

>  <m_chem_types>  (220) 
1:backbone_n,2:backbone_c,3:backbone_n_mod

$$$$

     RDKit          2D

  9  9  0  0  0  0  0  0  0  0999 V2000
   -1.7055   -0.0829    0.0000 R   0  0  0  0  0  0  0  0  0  0  0  0
   -0.7667    0.2617    0.0000 N   0  0  0  0  0  0  0  0  0  0  0  0
   -0.5959    1.2469    0.0000 R   0  0  0  0  0  0  0  0  0  0  0  0
    0.0011   -0.3789    0.0000 C   0  0  0  0  0  0  0  0  0  0  0  0
    0.7653    0.2661    0.0000 C   0  0  0  0  0  0  0  0  0  0  0  0
    1.7059   -0.0733    0.0000 R   0  0  0  0  0  0  0  0  0  0  0  0
    0.5889    1.2503    0.0000 O   0  0  0  0  0  0  0  0  0  0  0  0
   -0.4965   -1.2463    0.0000 C   0  0  0  0  0  0  0  0  0  0  0  0
    0.5035   -1.2435    0.0000 C   0  0  0  0  0  0  0  0  0  0  0  0
  1  2  1  0
  2  3  1  0
  2  4  1  0
  4  5  1  0
  5  6  1  0
  5  7  2  0
  4  8  1  0
  8  9  1  0
  9  4  1  0
M  ISO  3   1   1   3   3   6   2
V    1 *
V    3 *
V    6 *
M  END
>  <symbol>  (221) 
Ac3c

>  <m_Rgroups>  (221) 
[H],[OH],[H],None,None,None

>  <m_abbr>  (221) 
Ac3c

>  <m_name>  (221) 
1-aminocyclopropane-1-carboxylic acid

>  <m_type>  (221) 
aa

>  <m_subtype>  (221) 
natural

>  <m_chem_types>  (221) 
1:backbone_n,2:backbone_c,3:backbone_n_mod

$$$$

     RDKit          2D

 12 12  0  0  0  0  0  0  0  0999 V2000
   -1.5655    0.5613    0.0000 R   0  0  0  0  0  0  0  0  0  0  0  0
   -0.5855    0.7431    0.0000 N   0  0  0  0  0  0  0  0  0  0  0  0
   -0.2827    1.5875    0.0000 R   0  0  0  0  0  0  0  0  0  0  0  0
    0.0189    0.0251    0.0000 C   0  0  0  0  0  0  0  0  0  0  0  0
    0.7411    0.7461    0.0000 C   0  0  0  0  0  0  0  0  0  0  0  0
    1.6995    0.4765    0.0000 R   0  0  0  0  0  0  0  0  0  0  0  0
    0.5087    1.7073    0.0000 O   0  0  0  0  0  0  0  0  0  0  0  0
   -0.8973   -0.3843    0.0000 C   0  0  0  0  0  0  0  0  0  0  0  0
   -0.9981   -1.3779    0.0000 C   0  0  0  0  0  0  0  0  0  0  0  0
   -0.1899   -1.9655    0.0000 C   0  0  0  0  0  0  0  0  0  0  0  0
    0.7245   -1.5569    0.0000 C   0  0  0  0  0  0  0  0  0  0  0  0
    0.8261   -0.5627    0.0000 C   0  0  0  0  0  0  0  0  0  0  0  0
  1  2  1  0
  2  3  1  0
  2  4  1  0
  4  5  1  0
  5  6  1  0
  5  7  2  0
  4  8  1  0
  8  9  1  0
  9 10  1  0
 10 11  1  0
 11 12  1  0
 12  4  1  0
M  ISO  3   1   1   3   3   6   2
V    1 *
V    3 *
V    6 *
M  END
>  <symbol>  (222) 
Ac6c

>  <m_Rgroups>  (222) 
[H],[OH],[H],None,None,None

>  <m_abbr>  (222) 
Ac6c

>  <m_name>  (222) 
1-aminocyclohexane-1-carboxylic acid

>  <m_type>  (222) 
aa

>  <m_subtype>  (222) 
natural

>  <m_chem_types>  (222) 
1:backbone_n,2:backbone_c,3:backbone_n_mod

$$$$

     RDKit          2D

  8  7  0  0  0  0  0  0  0  0999 V2000
    2.1652    0.2482    0.0000 R   0  0  0  0  0  0  0  0  0  0  0  0
    1.2988   -0.2510    0.0000 N   0  0  0  0  0  0  0  0  0  0  0  0
    1.2980   -1.2510    0.0000 R   0  0  0  0  0  0  0  0  0  0  0  0
    0.4332    0.2496    0.0000 C   0  0  0  0  0  0  0  0  0  0  0  0
   -0.4332   -0.2496    0.0000 C   0  0  0  0  0  0  0  0  0  0  0  0
   -1.2988    0.2510    0.0000 C   0  0  0  0  0  0  0  0  0  0  0  0
   -2.1652   -0.2482    0.0000 R   0  0  0  0  0  0  0  0  0  0  0  0
   -1.2980    1.2510    0.0000 O   0  0  0  0  0  0  0  0  0  0  0  0
  1  2  1  0
  2  3  1  0
  2  4  1  0
  4  5  1  0
  5  6  1  0
  6  7  1  0
  6  8  2  0
M  ISO  3   1   1   3   3   7   2
V    1 *
V    3 *
V    7 *
M  END
>  <symbol>  (223) 
bAla

>  <m_Rgroups>  (223) 
[H],[OH],[H],None,None,None

>  <m_abbr>  (223) 
bAla

>  <m_name>  (223) 
3-aminopropanoic acid

>  <m_type>  (223) 
aa

>  <m_subtype>  (223) 
natural

>  <m_chem_types>  (223) 
1:backbone_n,2:backbone_c,3:backbone_n_mod

$$$$

     RDKit          2D

 16 15  0  0  0  0  0  0  0  0999 V2000
   -1.3480    2.5965    0.0000 R   0  0  0  0  0  0  0  0  0  0  0  0
   -1.3500    1.5965    0.0000 N   0  0  0  0  0  0  0  0  0  0  0  0
   -2.2170    1.0981    0.0000 R   0  0  0  0  0  0  0  0  0  0  0  0
   -0.4850    1.0947    0.0000 C   0  0  0  0  0  0  0  0  0  0  0  0
    0.3822    1.5931    0.0000 C   0  0  0  0  0  0  0  0  0  0  0  0
    1.2472    1.0913    0.0000 R   0  0  0  0  0  0  0  0  0  0  0  0
    0.3842    2.5929    0.0000 O   0  0  0  0  0  0  0  0  0  0  0  0
   -0.4870    0.0947    0.0000 C   0  0  0  0  0  0  0  0  0  0  0  0
   -1.3540   -0.4035    0.0000 O   0  0  0  0  0  0  0  0  0  0  0  0
   -1.3560   -1.4035    0.0000 R   0  0  0  0  0  0  0  0  0  0  0  0
    0.3780   -0.4069    0.0000 C   0  0  0  0  0  0  0  0  0  0  0  0
    1.2450    0.0913    0.0000 C   0  0  0  0  0  0  0  0  0  0  0  0
    0.3760   -1.4069    0.0000 C   0  0  0  0  0  0  0  0  0  0  0  0
    1.2410   -1.9087    0.0000 C   0  0  0  0  0  0  0  0  0  0  0  0
    1.2390   -2.9087    0.0000 C   0  0  0  0  0  0  0  0  0  0  0  0
    2.1040   -3.4103    0.0000 C   0  0  0  0  0  0  0  0  0  0  0  0
  1  2  1  0
  2  3  1  0
  4  2  1  1
  4  5  1  0
  5  6  1  0
  5  7  2  0
  4  8  1  0
  8  9  1  6
  9 10  1  0
  8 11  1  0
 11 12  1  1
 11 13  1  0
 13 14  1  0
 14 15  2  3
 15 16  1  0
M  ISO  4   1   1   3   3   6   2  10   4
V    1 *
V    3 *
V    6 *
V   10 *
M  END
>  <symbol>  (224) 
D_Bmt

>  <m_Rgroups>  (224) 
[H],[OH],[H],[H],None,None

>  <m_abbr>  (224) 
D_Bmt

>  <m_name>  (224) 
(2R,3S,4S)-2-amino-3-hydroxy-4-methyloct-6-enoic acid

>  <m_type>  (224) 
aa

>  <m_subtype>  (224) 
natural

>  <m_chem_types>  (224) 
1:backbone_n,2:backbone_c,3:backbone_n_mod,4:hydroxyl

$$$$

     RDKit          2D

 16 15  0  0  0  0  0  0  0  0999 V2000
   -1.3480    2.5965    0.0000 R   0  0  0  0  0  0  0  0  0  0  0  0
   -1.3500    1.5965    0.0000 N   0  0  0  0  0  0  0  0  0  0  0  0
   -2.2170    1.0981    0.0000 R   0  0  0  0  0  0  0  0  0  0  0  0
   -0.4850    1.0947    0.0000 C   0  0  0  0  0  0  0  0  0  0  0  0
    0.3822    1.5931    0.0000 C   0  0  0  0  0  0  0  0  0  0  0  0
    1.2472    1.0913    0.0000 R   0  0  0  0  0  0  0  0  0  0  0  0
    0.3842    2.5929    0.0000 O   0  0  0  0  0  0  0  0  0  0  0  0
   -0.4870    0.0947    0.0000 C   0  0  0  0  0  0  0  0  0  0  0  0
   -1.3540   -0.4035    0.0000 O   0  0  0  0  0  0  0  0  0  0  0  0
   -1.3560   -1.4035    0.0000 R   0  0  0  0  0  0  0  0  0  0  0  0
    0.3780   -0.4069    0.0000 C   0  0  0  0  0  0  0  0  0  0  0  0
    1.2450    0.0913    0.0000 C   0  0  0  0  0  0  0  0  0  0  0  0
    0.3760   -1.4069    0.0000 C   0  0  0  0  0  0  0  0  0  0  0  0
    1.2410   -1.9087    0.0000 C   0  0  0  0  0  0  0  0  0  0  0  0
    1.2390   -2.9087    0.0000 C   0  0  0  0  0  0  0  0  0  0  0  0
    2.1040   -3.4103    0.0000 C   0  0  0  0  0  0  0  0  0  0  0  0
  1  2  1  0
  2  3  1  0
  4  2  1  1
  4  5  1  0
  5  6  1  0
  5  7  2  0
  4  8  1  0
  8  9  1  6
  9 10  1  0
  8 11  1  0
 11 12  1  1
 11 13  1  0
 13 14  1  0
 14 15  2  0
 15 16  1  0
M  ISO  4   1   1   3   3   6   2  10   4
V    1 *
V    3 *
V    6 *
V   10 *
M  END
>  <symbol>  (225) 
D_Bmt_E

>  <m_Rgroups>  (225) 
[H],[OH],[H],[H],None,None

>  <m_abbr>  (225) 
D_Bmt_E

>  <m_name>  (225) 
(2R,3S,4S,6E)-2-amino-3-hydroxy-4-methyloct-6-enoic acid

>  <m_type>  (225) 
aa

>  <m_subtype>  (225) 
natural

>  <m_chem_types>  (225) 
1:backbone_n,2:backbone_c,3:backbone_n_mod,4:hydroxyl

$$$$

     RDKit          2D

 15 15  0  0  0  0  0  0  0  0999 V2000
    0.0494   -2.3001    0.0000 R   0  0  0  0  0  0  0  0  0  0  0  0
    0.0530   -1.3003    0.0000 N   0  0  0  0  0  0  0  0  0  0  0  0
   -0.8112   -0.7971    0.0000 R   0  0  0  0  0  0  0  0  0  0  0  0
    0.9208   -0.8033    0.0000 C   0  0  0  0  0  0  0  0  0  0  0  0
    0.9244    0.1967    0.0000 C   0  0  0  0  0  0  0  0  0  0  0  0
    0.0604    0.6997    0.0000 C   0  0  0  0  0  0  0  0  0  0  0  0
   -0.8076    0.2027    0.0000 C   0  0  0  0  0  0  0  0  0  0  0  0
   -1.6716    0.7059    0.0000 C   0  0  0  0  0  0  0  0  0  0  0  0
   -1.6682    1.7059    0.0000 C   0  0  0  0  0  0  0  0  0  0  0  0
   -2.5324    2.2091    0.0000 F   0  0  0  0  0  0  0  0  0  0  0  0
   -0.8004    2.2029    0.0000 C   0  0  0  0  0  0  0  0  0  0  0  0
    0.0638    1.6997    0.0000 C   0  0  0  0  0  0  0  0  0  0  0  0
    1.7850   -1.3065    0.0000 C   0  0  0  0  0  0  0  0  0  0  0  0
    1.7814   -2.3063    0.0000 R   0  0  0  0  0  0  0  0  0  0  0  0
    2.6528   -0.8095    0.0000 O   0  0  0  0  0  0  0  0  0  0  0  0
  1  2  1  0
  2  3  1  0
  2  4  1  0
  4  5  1  6
  5  6  1  0
  6  7  1  0
  7  8  2  0
  8  9  1  0
  9 10  1  0
  9 11  2  0
 11 12  1  0
  4 13  1  0
 13 14  1  0
 13 15  2  0
 12  6  2  0
M  ISO  3   1   1   3   3  14   2
V    1 *
V    3 *
V   14 *
M  END
>  <symbol>  (226) 
D_Phe_4F

>  <m_Rgroups>  (226) 
[H],[OH],[H],None,None,None

>  <m_abbr>  (226) 
D_Phe_4F

>  <m_name>  (226) 
(2R)-2-amino-3-(4-fluorophenyl)propanoic acid

>  <m_type>  (226) 
aa

>  <m_subtype>  (226) 
natural

>  <m_chem_types>  (226) 
1:backbone_n,2:backbone_c,3:backbone_n_mod

$$$$

     RDKit          2D

 19 20  0  0  0  0  0  0  0  0999 V2000
   -1.6483   -2.8861    0.0000 R   0  0  0  0  0  0  0  0  0  0  0  0
   -1.6957   -1.8925    0.0000 N   0  0  0  0  0  0  0  0  0  0  0  0
   -2.5775   -1.4279    0.0000 R   0  0  0  0  0  0  0  0  0  0  0  0
   -0.8699   -1.3785    0.0000 C   0  0  0  0  0  0  0  0  0  0  0  0
   -0.9177   -0.3285    0.0000 C   0  0  0  0  0  0  0  0  0  0  0  0
   -0.0877    0.2589    0.0000 C   0  0  0  0  0  0  0  0  0  0  0  0
    0.8531   -0.0781    0.0000 C   0  0  0  0  0  0  0  0  0  0  0  0
    1.1023   -0.8145    0.0000 C   0  0  0  0  0  0  0  0  0  0  0  0
    1.4627    0.7117    0.0000 N   0  0  0  0  0  0  0  0  0  0  0  0
    2.4623    0.6805    0.0000 R   0  0  0  0  0  0  0  0  0  0  0  0
    0.9035    1.5333    0.0000 C   0  0  0  0  0  0  0  0  0  0  0  0
    1.1421    2.5059    0.0000 C   0  0  0  0  0  0  0  0  0  0  0  0
    0.4203    3.1963    0.0000 C   0  0  0  0  0  0  0  0  0  0  0  0
   -0.5407    2.9191    0.0000 C   0  0  0  0  0  0  0  0  0  0  0  0
   -0.7781    1.9473    0.0000 C   0  0  0  0  0  0  0  0  0  0  0  0
   -0.0591    1.2561    0.0000 C   0  0  0  0  0  0  0  0  0  0  0  0
    0.0109   -1.8935    0.0000 C   0  0  0  0  0  0  0  0  0  0  0  0
    0.0297   -2.8699    0.0000 R   0  0  0  0  0  0  0  0  0  0  0  0
    0.7875   -1.4393    0.0000 O   0  0  0  0  0  0  0  0  0  0  0  0
  1  2  1  0
  2  3  1  0
  2  4  1  0
  4  5  1  6
  5  6  1  0
  6  7  2  0
  7  8  1  0
  7  9  1  0
  9 10  1  0
  9 11  1  0
 11 12  2  0
 12 13  1  0
 13 14  2  0
 14 15  1  0
 15 16  2  0
  4 17  1  0
 17 18  1  0
 17 19  2  0
 16  6  1  0
 16 11  1  0
M  ISO  4   1   1   3   3  10   4  18   2
V    1 *
V    3 *
V   10 *
V   18 *
M  END
>  <symbol>  (227) 
D_Trp_2Me

>  <m_Rgroups>  (227) 
[H],[OH],[H],[H],None,None

>  <m_abbr>  (227) 
D_Trp_2Me

>  <m_name>  (227) 
(2R)-2-amino-3-(2-methyl-1H-indol-3-yl)propanoic acid

>  <m_type>  (227) 
aa

>  <m_subtype>  (227) 
natural

>  <m_chem_types>  (227) 
1:backbone_n,2:backbone_c,3:backbone_n_mod,4:aromatic_nh

$$$$

     RDKit          2D

 18 18  0  0  0  0  0  0  0  0999 V2000
    0.3871   -2.7775    0.0000 R   0  0  0  0  0  0  0  0  0  0  0  0
    0.3863   -1.7775    0.0000 N   0  0  0  0  0  0  0  0  0  0  0  0
   -0.4801   -1.2781    0.0000 R   0  0  0  0  0  0  0  0  0  0  0  0
    1.2519   -1.2767    0.0000 C   0  0  0  0  0  0  0  0  0  0  0  0
    1.2511   -0.2767    0.0000 C   0  0  0  0  0  0  0  0  0  0  0  0
    0.3847    0.2225    0.0000 C   0  0  0  0  0  0  0  0  0  0  0  0
   -0.4809   -0.2781    0.0000 C   0  0  0  0  0  0  0  0  0  0  0  0
   -1.3475    0.2211    0.0000 C   0  0  0  0  0  0  0  0  0  0  0  0
   -1.3483    1.2213    0.0000 C   0  0  0  0  0  0  0  0  0  0  0  0
   -2.2145    1.7205    0.0000 O   0  0  0  0  0  0  0  0  0  0  0  0
   -3.0801    1.2197    0.0000 R   0  0  0  0  0  0  0  0  0  0  0  0
   -0.4825    1.7217    0.0000 C   0  0  0  0  0  0  0  0  0  0  0  0
   -0.4833    2.7219    0.0000 O   0  0  0  0  0  0  0  0  0  0  0  0
   -1.3497    3.2211    0.0000 R   0  0  0  0  0  0  0  0  0  0  0  0
    0.3839    1.2225    0.0000 C   0  0  0  0  0  0  0  0  0  0  0  0
    2.1183   -1.7761    0.0000 C   0  0  0  0  0  0  0  0  0  0  0  0
    2.1191   -2.7761    0.0000 R   0  0  0  0  0  0  0  0  0  0  0  0
    2.9839   -1.2753    0.0000 O   0  0  0  0  0  0  0  0  0  0  0  0
  1  2  1  0
  2  3  1  0
  2  4  1  0
  4  5  1  6
  5  6  1  0
  6  7  1  0
  7  8  2  0
  8  9  1  0
  9 10  1  0
 10 11  1  0
  9 12  2  0
 12 13  1  0
 13 14  1  0
 12 15  1  0
  4 16  1  0
 16 17  1  0
 16 18  2  0
 15  6  2  0
M  ISO  5   1   1   3   3  11   4  14   5  17   2
V    1 *
V    3 *
V   11 *
V   14 *
V   17 *
M  END
>  <symbol>  (228) 
D_Tyr_3OH

>  <m_Rgroups>  (228) 
[H],[OH],[H],[H],[H],None

>  <m_abbr>  (228) 
D_Tyr_3OH

>  <m_name>  (228) 
(2R)-2-amino-3-(3,4-dihydroxyphenyl)propanoic acid

>  <m_type>  (228) 
aa

>  <m_subtype>  (228) 
natural

>  <m_chem_types>  (228) 
1:backbone_n,2:backbone_c,3:backbone_n_mod,4:hydroxyl_phenolic,5:hydroxyl_phenolic

$$$$

     RDKit          2D

 16 16  0  0  0  0  0  0  0  0999 V2000
    0.2075   -2.5007    0.0000 R   0  0  0  0  0  0  0  0  0  0  0  0
    0.2111   -1.5007    0.0000 N   0  0  0  0  0  0  0  0  0  0  0  0
   -0.6531   -0.9977    0.0000 R   0  0  0  0  0  0  0  0  0  0  0  0
    1.0789   -1.0039    0.0000 C   0  0  0  0  0  0  0  0  0  0  0  0
    1.0825   -0.0039    0.0000 C   0  0  0  0  0  0  0  0  0  0  0  0
    0.2183    0.4991    0.0000 C   0  0  0  0  0  0  0  0  0  0  0  0
   -0.6495    0.0023    0.0000 C   0  0  0  0  0  0  0  0  0  0  0  0
   -1.5137    0.5055    0.0000 C   0  0  0  0  0  0  0  0  0  0  0  0
   -1.5101    1.5053    0.0000 C   0  0  0  0  0  0  0  0  0  0  0  0
   -2.3743    2.0085    0.0000 O   0  0  0  0  0  0  0  0  0  0  0  0
   -2.3707    3.0085    0.0000 C   0  0  0  0  0  0  0  0  0  0  0  0
   -0.6423    2.0023    0.0000 C   0  0  0  0  0  0  0  0  0  0  0  0
    0.2219    1.4991    0.0000 C   0  0  0  0  0  0  0  0  0  0  0  0
    1.9431   -1.5069    0.0000 C   0  0  0  0  0  0  0  0  0  0  0  0
    1.9395   -2.5069    0.0000 R   0  0  0  0  0  0  0  0  0  0  0  0
    2.8109   -1.0101    0.0000 O   0  0  0  0  0  0  0  0  0  0  0  0
  1  2  1  0
  2  3  1  0
  2  4  1  0
  4  5  1  6
  5  6  1  0
  6  7  1  0
  7  8  2  0
  8  9  1  0
  9 10  1  0
 10 11  1  0
  9 12  2  0
 12 13  1  0
  4 14  1  0
 14 15  1  0
 14 16  2  0
 13  6  2  0
M  ISO  3   1   1   3   3  15   2
V    1 *
V    3 *
V   15 *
M  END
>  <symbol>  (229) 
D_Tyr_Me

>  <m_Rgroups>  (229) 
[H],[OH],[H],None,None,None

>  <m_abbr>  (229) 
D_Tyr_Me

>  <m_name>  (229) 
(2R)-2-amino-3-(4-methoxyphenyl)propanoic acid

>  <m_type>  (229) 
aa

>  <m_subtype>  (229) 
natural

>  <m_chem_types>  (229) 
1:backbone_n,2:backbone_c,3:backbone_n_mod

$$$$

     RDKit          2D

 11 10  0  0  0  0  0  0  0  0999 V2000
   -0.9413    1.7290    0.0000 R   0  0  0  0  0  0  0  0  0  0  0  0
   -0.9433    0.7292    0.0000 N   0  0  0  0  0  0  0  0  0  0  0  0
   -1.8103    0.2308    0.0000 R   0  0  0  0  0  0  0  0  0  0  0  0
   -0.0783    0.2274    0.0000 C   0  0  0  0  0  0  0  0  0  0  0  0
    0.7887    0.7256    0.0000 C   0  0  0  0  0  0  0  0  0  0  0  0
    1.6537    0.2240    0.0000 R   0  0  0  0  0  0  0  0  0  0  0  0
    0.7907    1.7256    0.0000 O   0  0  0  0  0  0  0  0  0  0  0  0
   -0.0803   -0.7726    0.0000 C   0  0  0  0  0  0  0  0  0  0  0  0
   -0.9473   -1.2708    0.0000 C   0  0  0  0  0  0  0  0  0  0  0  0
    0.7847   -1.2742    0.0000 C   0  0  0  0  0  0  0  0  0  0  0  0
    0.7827   -2.2742    0.0000 C   0  0  0  0  0  0  0  0  0  0  0  0
  1  2  1  0
  2  3  1  0
  2  4  1  0
  4  5  1  0
  5  6  1  0
  5  7  2  0
  4  8  1  1
  8  9  1  0
  8 10  1  0
 10 11  1  0
M  ISO  3   1   1   3   3   6   2
V    1 *
V    3 *
V    6 *
M  END
>  <symbol>  (230) 
D_xiIle

>  <m_Rgroups>  (230) 
[H],[OH],[H],None,None,None

>  <m_abbr>  (230) 
D_xiIle

>  <m_name>  (230) 
(2R)-2-amino-3-methylpentanoic acid

>  <m_type>  (230) 
aa

>  <m_subtype>  (230) 
natural

>  <m_chem_types>  (230) 
1:backbone_n,2:backbone_c,3:backbone_n_mod

$$$$

     RDKit          2D

 15 14  0  0  0  0  0  0  0  0999 V2000
   -1.7838    2.9702    0.0000 R   0  0  0  0  0  0  0  0  0  0  0  0
   -1.7858    1.9702    0.0000 N   0  0  0  0  0  0  0  0  0  0  0  0
   -2.6528    1.4720    0.0000 R   0  0  0  0  0  0  0  0  0  0  0  0
   -0.9208    1.4684    0.0000 C   0  0  0  0  0  0  0  0  0  0  0  0
   -0.9228    0.4684    0.0000 C   0  0  0  0  0  0  0  0  0  0  0  0
   -0.0578   -0.0332    0.0000 C   0  0  0  0  0  0  0  0  0  0  0  0
   -0.0598   -1.0332    0.0000 C   0  0  0  0  0  0  0  0  0  0  0  0
    0.8052   -1.5350    0.0000 C   0  0  0  0  0  0  0  0  0  0  0  0
    0.8032   -2.5348    0.0000 N   0  0  0  0  0  0  0  0  0  0  0  0
    1.6682   -3.0366    0.0000 C   0  0  0  0  0  0  0  0  0  0  0  0
    1.6660   -4.0366    0.0000 C   0  0  0  0  0  0  0  0  0  0  0  0
    2.5352   -2.5384    0.0000 C   0  0  0  0  0  0  0  0  0  0  0  0
   -0.0538    1.9668    0.0000 C   0  0  0  0  0  0  0  0  0  0  0  0
    0.8112    1.4650    0.0000 R   0  0  0  0  0  0  0  0  0  0  0  0
   -0.0518    2.9668    0.0000 O   0  0  0  0  0  0  0  0  0  0  0  0
  1  2  1  0
  2  3  1  0
  2  4  1  0
  4  5  1  6
  5  6  1  0
  6  7  1  0
  7  8  1  0
  8  9  1  0
  9 10  1  0
 10 11  1  0
 10 12  1  0
  4 13  1  0
 13 14  1  0
 13 15  2  0
M  ISO  3   1   1   3   3  14   2
V    1 *
V    3 *
V   14 *
M  END
>  <symbol>  (231) 
Lys_iPr

>  <m_Rgroups>  (231) 
[H],[OH],[H],None,None,None

>  <m_abbr>  (231) 
Lys_iPr

>  <m_name>  (231) 
(2S)-2-amino-6-[(propan-2-yl)amino]hexanoic acid

>  <m_type>  (231) 
aa

>  <m_subtype>  (231) 
natural

>  <m_chem_types>  (231) 
1:backbone_n,2:backbone_c,3:backbone_n_mod

$$$$

     RDKit          2D

  8  8  0  0  0  0  0  0  0  0999 V2000
    0.7616    1.9360    0.0000 R   0  0  0  0  0  0  0  0  0  0  0  0
   -0.1054    1.4376    0.0000 C   0  0  0  0  0  0  0  0  0  0  0  0
   -0.1074    0.4378    0.0000 C   0  0  0  0  0  0  0  0  0  0  0  0
   -0.9744   -0.0606    0.0000 C   0  0  0  0  0  0  0  0  0  0  0  0
   -0.9764   -1.0606    0.0000 C   0  0  0  0  0  0  0  0  0  0  0  0
   -0.1114   -1.5622    0.0000 C   0  0  0  0  0  0  0  0  0  0  0  0
    0.7556   -1.0640    0.0000 C   0  0  0  0  0  0  0  0  0  0  0  0
    0.7576   -0.0640    0.0000 C   0  0  0  0  0  0  0  0  0  0  0  0
  1  2  1  0
  2  3  1  0
  3  4  2  0
  4  5  1  0
  5  6  2  0
  6  7  1  0
  7  8  2  0
  8  3  1  0
M  ISO  1   1   2
V    1 *
M  END
>  <symbol>  (232) 
_Bn

>  <m_Rgroups>  (232) 
None,[Br],None,None,None,None

>  <m_abbr>  (232) 
_Bn

>  <m_name>  (232) 
C-Terminal toluene

>  <m_type>  (232) 
cap

>  <m_subtype>  (232) 
cap

>  <m_chem_types>  (232) 
2:backbone_c

$$$$

     RDKit          2D

  9  9  0  0  0  0  0  0  0  0999 V2000
   -2.5955   -0.7314    0.0000 R   0  0  0  0  0  0  0  0  0  0  0  0
   -1.7313   -0.2284    0.0000 O   0  0  0  0  0  0  0  0  0  0  0  0
   -0.8635   -0.7252    0.0000 C   0  0  0  0  0  0  0  0  0  0  0  0
    0.0007   -0.2222    0.0000 C   0  0  0  0  0  0  0  0  0  0  0  0
    0.8687   -0.7192    0.0000 C   0  0  0  0  0  0  0  0  0  0  0  0
    1.7327   -0.2160    0.0000 C   0  0  0  0  0  0  0  0  0  0  0  0
    1.7293    0.7840    0.0000 C   0  0  0  0  0  0  0  0  0  0  0  0
    0.8613    1.2810    0.0000 C   0  0  0  0  0  0  0  0  0  0  0  0
   -0.0027    0.7778    0.0000 C   0  0  0  0  0  0  0  0  0  0  0  0
  1  2  1  0
  2  3  1  0
  3  4  1  0
  4  5  2  0
  5  6  1  0
  6  7  2  0
  7  8  1  0
  8  9  2  0
  9  4  1  0
M  ISO  1   1   1
V    1 *
M  END
>  <symbol>  (233) 
_OBn

>  <m_Rgroups>  (233) 
[H],None,None,None,None,None

>  <m_abbr>  (233) 
_OBn

>  <m_name>  (233) 
C-Terminal phenylmethanol

>  <m_type>  (233) 
cap

>  <m_subtype>  (233) 
cap

>  <m_chem_types>  (233) 
1:backbone_n

$$$$

     RDKit          2D

  7  7  0  0  0  0  0  0  0  0999 V2000
   -1.4853   -0.8560    0.0000 R   0  0  0  0  0  0  0  0  0  0  0  0
   -0.6189   -0.3566    0.0000 C   0  0  0  0  0  0  0  0  0  0  0  0
   -0.6181    0.6434    0.0000 C   0  0  0  0  0  0  0  0  0  0  0  0
    0.2483    1.1426    0.0000 C   0  0  0  0  0  0  0  0  0  0  0  0
    1.1139    0.6420    0.0000 C   0  0  0  0  0  0  0  0  0  0  0  0
    1.1131   -0.3580    0.0000 C   0  0  0  0  0  0  0  0  0  0  0  0
    0.2467   -0.8574    0.0000 C   0  0  0  0  0  0  0  0  0  0  0  0
  1  2  1  0
  2  3  2  0
  3  4  1  0
  4  5  2  0
  5  6  1  0
  6  7  2  0
  7  2  1  0
M  ISO  1   1   1
V    1 *
M  END
>  <symbol>  (234) 
Ph

>  <m_Rgroups>  (234) 
[H],None,None,None,None,None

>  <m_abbr>  (234) 
Ph

>  <m_name>  (234) 
Phenyl

>  <m_type>  (234) 
cap

>  <m_subtype>  (234) 
cap

>  <m_chem_types>  (234) 
1:carbon

$$$$

     RDKit          2D

  8  7  0  0  0  0  0  0  0  0999 V2000
   -1.8398   -0.6554    0.0000 R   0  0  0  0  0  0  0  0  0  0  0  0
   -0.9742   -0.1548    0.0000 C   0  0  0  0  0  0  0  0  0  0  0  0
   -0.9749    0.8452    0.0000 O   0  0  0  0  0  0  0  0  0  0  0  0
   -0.1077   -0.6540    0.0000 O   0  0  0  0  0  0  0  0  0  0  0  0
    0.7579   -0.1534    0.0000 C   0  0  0  0  0  0  0  0  0  0  0  0
    0.2573    0.7122    0.0000 C   0  0  0  0  0  0  0  0  0  0  0  0
    1.2573    0.7130    0.0000 C   0  0  0  0  0  0  0  0  0  0  0  0
    1.6242   -0.6526    0.0000 C   0  0  0  0  0  0  0  0  0  0  0  0
  1  2  1  0
  2  3  2  0
  2  4  1  0
  4  5  1  0
  5  6  1  0
  5  7  1  0
  5  8  1  0
M  ISO  1   1   2
V    1 *
M  END
>  <symbol>  (235) 
Boc

>  <m_Rgroups>  (235) 
None,[OH],None,None,None,None

>  <m_abbr>  (235) 
Boc

>  <m_name>  (235) 
Tert-butyloxycarbonyl

>  <m_type>  (235) 
cap

>  <m_subtype>  (235) 
cap

>  <m_chem_types>  (235) 
2:backbone_c

$$$$

     RDKit          2D

  8  7  0  0  0  0  0  0  0  0999 V2000
    1.7320    0.0034    0.0000 R   0  0  0  0  0  0  0  0  0  0  0  0
    0.8650    0.5018    0.0000 C   0  0  0  0  0  0  0  0  0  0  0  0
    0.8630    1.5016    0.0000 O   0  0  0  0  0  0  0  0  0  0  0  0
   -0.0000   -0.0000    0.0000 C   0  0  0  0  0  0  0  0  0  0  0  0
   -0.8670    0.4982    0.0000 C   0  0  0  0  0  0  0  0  0  0  0  0
   -1.7320   -0.0034    0.0000 C   0  0  0  0  0  0  0  0  0  0  0  0
    0.0020   -1.0000    0.0000 S   0  0  0  0  0  0  0  0  0  0  0  0
   -0.8630   -1.5016    0.0000 R   0  0  0  0  0  0  0  0  0  0  0  0
  1  2  1  0
  2  3  2  0
  2  4  1  0
  4  5  1  1
  5  6  1  0
  4  7  1  0
  7  8  1  0
M  ISO  2   1   2   8   3
V    1 *
V    8 *
M  END
>  <symbol>  (236) 
Mba

>  <m_Rgroups>  (236) 
None,[OH],None,None,None,None

>  <m_abbr>  (236) 
Mba

>  <m_name>  (236) 
Mercaptobutanoic acid

>  <m_type>  (236) 
cap

>  <m_subtype>  (236) 
cap

>  <m_chem_types>  (236) 
2:backbone_c

$$$$

     RDKit          2D

  9  8  0  0  0  0  0  0  0  0999 V2000
    2.0208   -0.0516    0.0000 R   0  0  0  0  0  0  0  0  0  0  0  0
    1.1538    0.4468    0.0000 C   0  0  0  0  0  0  0  0  0  0  0  0
    1.1518    1.4468    0.0000 O   0  0  0  0  0  0  0  0  0  0  0  0
    0.2888   -0.0550    0.0000 C   0  0  0  0  0  0  0  0  0  0  0  0
   -0.5782    0.4434    0.0000 C   0  0  0  0  0  0  0  0  0  0  0  0
   -1.4432   -0.0584    0.0000 C   0  0  0  0  0  0  0  0  0  0  0  0
   -2.3102    0.4398    0.0000 C   0  0  0  0  0  0  0  0  0  0  0  0
    0.2908   -1.0550    0.0000 O   0  0  0  0  0  0  0  0  0  0  0  0
   -0.5742   -1.5566    0.0000 R   0  0  0  0  0  0  0  0  0  0  0  0
  1  2  1  0
  2  3  2  0
  2  4  1  0
  4  5  1  1
  5  6  1  0
  6  7  1  0
  4  8  1  0
  8  9  1  0
M  ISO  2   1   2   9   4
V    1 *
V    9 *
M  END
>  <symbol>  (237) 
Hva

>  <m_Rgroups>  (237) 
None,[OH],None,[H],None,None

>  <m_abbr>  (237) 
Hva

>  <m_name>  (237) 
2-Hydroxypentanoic acid

>  <m_type>  (237) 
cap

>  <m_subtype>  (237) 
cap

>  <m_chem_types>  (237) 
2:backbone_c,4:hydroxyl

$$$$

     RDKit          2D

 10 10  0  0  0  0  0  0  0  0999 V2000
   -2.4220   -0.8086    0.0000 R   0  0  0  0  0  0  0  0  0  0  0  0
   -1.5578   -0.3056    0.0000 C   0  0  0  0  0  0  0  0  0  0  0  0
   -1.5614    0.6944    0.0000 O   0  0  0  0  0  0  0  0  0  0  0  0
   -0.6900   -0.8024    0.0000 C   0  0  0  0  0  0  0  0  0  0  0  0
    0.1742   -0.2994    0.0000 C   0  0  0  0  0  0  0  0  0  0  0  0
    1.0422   -0.7964    0.0000 C   0  0  0  0  0  0  0  0  0  0  0  0
    1.9062   -0.2932    0.0000 C   0  0  0  0  0  0  0  0  0  0  0  0
    1.9028    0.7068    0.0000 C   0  0  0  0  0  0  0  0  0  0  0  0
    1.0348    1.2038    0.0000 C   0  0  0  0  0  0  0  0  0  0  0  0
    0.1708    0.7006    0.0000 C   0  0  0  0  0  0  0  0  0  0  0  0
  1  2  1  0
  2  3  2  0
  2  4  1  0
  4  5  1  0
  5  6  1  0
  6  7  1  0
  7  8  1  0
  8  9  1  0
  9 10  1  0
 10  5  1  0
M  ISO  1   1   2
V    1 *
M  END
>  <symbol>  (238) 
deamino_Chg

>  <m_Rgroups>  (238) 
None,[OH],None,None,None,None

>  <m_abbr>  (238) 
deamino_Chg

>  <m_name>  (238) 
2-cyclohexylacetic acid

>  <m_type>  (238) 
cap

>  <m_subtype>  (238) 
cap

>  <m_chem_types>  (238) 
2:backbone_c

$$$$

     RDKit          2D

 17 18  0  0  0  0  0  0  0  0999 V2000
   -2.8011   -0.8552    0.0000 R   0  0  0  0  0  0  0  0  0  0  0  0
   -1.9355   -0.3546    0.0000 C   0  0  0  0  0  0  0  0  0  0  0  0
   -1.9363    0.6454    0.0000 O   0  0  0  0  0  0  0  0  0  0  0  0
   -1.0691   -0.8538    0.0000 C   0  0  0  0  0  0  0  0  0  0  0  0
   -0.2035   -0.3532    0.0000 C   0  0  0  0  0  0  0  0  0  0  0  0
    0.6629   -0.8524    0.0000 C   0  0  0  0  0  0  0  0  0  0  0  0
    0.6637   -1.8524    0.0000 C   0  0  0  0  0  0  0  0  0  0  0  0
    1.5301   -2.3516    0.0000 C   0  0  0  0  0  0  0  0  0  0  0  0
    2.3957   -1.8512    0.0000 C   0  0  0  0  0  0  0  0  0  0  0  0
    2.3949   -0.8510    0.0000 C   0  0  0  0  0  0  0  0  0  0  0  0
    1.5285   -0.3518    0.0000 C   0  0  0  0  0  0  0  0  0  0  0  0
   -0.2043    0.6470    0.0000 C   0  0  0  0  0  0  0  0  0  0  0  0
    0.6613    1.1476    0.0000 C   0  0  0  0  0  0  0  0  0  0  0  0
    0.6605    2.1476    0.0000 C   0  0  0  0  0  0  0  0  0  0  0  0
   -0.2059    2.6468    0.0000 C   0  0  0  0  0  0  0  0  0  0  0  0
   -1.0715    2.1462    0.0000 C   0  0  0  0  0  0  0  0  0  0  0  0
   -1.0707    1.1462    0.0000 C   0  0  0  0  0  0  0  0  0  0  0  0
  1  2  1  0
  2  3  2  0
  2  4  1  0
  4  5  1  0
  5  6  1  0
  6  7  2  0
  7  8  1  0
  8  9  2  0
  9 10  1  0
 10 11  2  0
  5 12  1  0
 12 13  2  0
 13 14  1  0
 14 15  2  0
 15 16  1  0
 16 17  2  0
 11  6  1  0
 17 12  1  0
M  ISO  1   1   2
V    1 *
M  END
>  <symbol>  (239) 
deamino_Dip

>  <m_Rgroups>  (239) 
None,[OH],None,None,None,None

>  <m_abbr>  (239) 
deamino_Dip

>  <m_name>  (239) 
3,3-diphenylpropanoic acid

>  <m_type>  (239) 
cap

>  <m_subtype>  (239) 
cap

>  <m_chem_types>  (239) 
2:backbone_c

$$$$

     RDKit          2D

  8  7  0  0  0  0  0  0  0  0999 V2000
   -1.8398   -0.6554    0.0000 R   0  0  0  0  0  0  0  0  0  0  0  0
   -0.9742   -0.1548    0.0000 C   0  0  0  0  0  0  0  0  0  0  0  0
   -0.9749    0.8452    0.0000 O   0  0  0  0  0  0  0  0  0  0  0  0
   -0.1077   -0.6540    0.0000 C   0  0  0  0  0  0  0  0  0  0  0  0
    0.7579   -0.1534    0.0000 C   0  0  0  0  0  0  0  0  0  0  0  0
    0.2573    0.7122    0.0000 C   0  0  0  0  0  0  0  0  0  0  0  0
    1.2573    0.7130    0.0000 C   0  0  0  0  0  0  0  0  0  0  0  0
    1.6242   -0.6526    0.0000 C   0  0  0  0  0  0  0  0  0  0  0  0
  1  2  1  0
  2  3  2  0
  2  4  1  0
  4  5  1  0
  5  6  1  0
  5  7  1  0
  5  8  1  0
M  ISO  1   1   2
V    1 *
M  END
>  <symbol>  (240) 
deamino_Gly_tBu

>  <m_Rgroups>  (240) 
None,[OH],None,None,None,None

>  <m_abbr>  (240) 
deamino_Gly_tBu

>  <m_name>  (240) 
3,3-dimethylbutanoic acid

>  <m_type>  (240) 
cap

>  <m_subtype>  (240) 
cap

>  <m_chem_types>  (240) 
2:backbone_c

$$$$

     RDKit          2D

 12 12  0  0  0  0  0  0  0  0999 V2000
   -3.3893   -0.7205    0.0000 R   0  0  0  0  0  0  0  0  0  0  0  0
   -2.5251   -0.2173    0.0000 C   0  0  0  0  0  0  0  0  0  0  0  0
   -2.5287    0.7827    0.0000 O   0  0  0  0  0  0  0  0  0  0  0  0
   -1.6573   -0.7144    0.0000 C   0  0  0  0  0  0  0  0  0  0  0  0
   -0.7931   -0.2111    0.0000 C   0  0  0  0  0  0  0  0  0  0  0  0
    0.0747   -0.7082    0.0000 C   0  0  0  0  0  0  0  0  0  0  0  0
    0.9389   -0.2050    0.0000 C   0  0  0  0  0  0  0  0  0  0  0  0
    1.8067   -0.7019    0.0000 C   0  0  0  0  0  0  0  0  0  0  0  0
    2.6709   -0.1988    0.0000 C   0  0  0  0  0  0  0  0  0  0  0  0
    2.6675    0.8012    0.0000 C   0  0  0  0  0  0  0  0  0  0  0  0
    1.7995    1.2982    0.0000 C   0  0  0  0  0  0  0  0  0  0  0  0
    0.9355    0.7950    0.0000 C   0  0  0  0  0  0  0  0  0  0  0  0
  1  2  1  0
  2  3  2  0
  2  4  1  0
  4  5  1  0
  5  6  1  0
  6  7  1  0
  7  8  2  0
  8  9  1  0
  9 10  2  0
 10 11  1  0
 11 12  2  0
 12  7  1  0
M  ISO  1   1   2
V    1 *
M  END
>  <symbol>  (241) 
deamino_hPhe

>  <m_Rgroups>  (241) 
None,[OH],None,None,None,None

>  <m_abbr>  (241) 
deamino_hPhe

>  <m_name>  (241) 
4-phenylbutanoic acid

>  <m_type>  (241) 
cap

>  <m_subtype>  (241) 
cap

>  <m_chem_types>  (241) 
2:backbone_c

$$$$

     RDKit          2D

 12 12  0  0  0  0  0  0  0  0999 V2000
    2.3831    1.9565    0.0000 R   0  0  0  0  0  0  0  0  0  0  0  0
    1.5167    1.4571    0.0000 C   0  0  0  0  0  0  0  0  0  0  0  0
    0.6511    1.9579    0.0000 O   0  0  0  0  0  0  0  0  0  0  0  0
    1.5159    0.4571    0.0000 C   0  0  0  0  0  0  0  0  0  0  0  0
    0.6495   -0.0421    0.0000 C   0  0  0  0  0  0  0  0  0  0  0  0
    0.6487   -1.0423    0.0000 C   0  0  0  0  0  0  0  0  0  0  0  0
   -0.2177   -1.5415    0.0000 C   0  0  0  0  0  0  0  0  0  0  0  0
   -1.0835   -1.0409    0.0000 C   0  0  0  0  0  0  0  0  0  0  0  0
   -1.9497   -1.5401    0.0000 O   0  0  0  0  0  0  0  0  0  0  0  0
   -2.8153   -1.0395    0.0000 C   0  0  0  0  0  0  0  0  0  0  0  0
   -1.0827   -0.0407    0.0000 C   0  0  0  0  0  0  0  0  0  0  0  0
   -0.2161    0.4585    0.0000 C   0  0  0  0  0  0  0  0  0  0  0  0
  1  2  1  0
  2  3  2  0
  2  4  1  0
  4  5  1  0
  5  6  1  0
  6  7  2  0
  7  8  1  0
  8  9  1  0
  9 10  1  0
  8 11  2  0
 11 12  1  0
 12  5  2  0
M  ISO  1   1   2
V    1 *
M  END
>  <symbol>  (242) 
deamino_nTyr_Me

>  <m_Rgroups>  (242) 
None,[OH],None,None,None,None

>  <m_abbr>  (242) 
deamino_nTyr_Me

>  <m_name>  (242) 
2-(4-methoxyphenyl)acetic acid

>  <m_type>  (242) 
cap

>  <m_subtype>  (242) 
cap

>  <m_chem_types>  (242) 
2:backbone_c

$$$$

     RDKit          2D

 11 11  0  0  0  0  0  0  0  0999 V2000
   -2.6735   -0.9186    0.0000 R   0  0  0  0  0  0  0  0  0  0  0  0
   -1.8093   -0.4156    0.0000 C   0  0  0  0  0  0  0  0  0  0  0  0
   -1.8129    0.5844    0.0000 O   0  0  0  0  0  0  0  0  0  0  0  0
   -0.9415   -0.9124    0.0000 C   0  0  0  0  0  0  0  0  0  0  0  0
   -0.0773   -0.4094    0.0000 C   0  0  0  0  0  0  0  0  0  0  0  0
    0.7905   -0.9062    0.0000 C   0  0  0  0  0  0  0  0  0  0  0  0
    1.6547   -0.4030    0.0000 C   0  0  0  0  0  0  0  0  0  0  0  0
    1.6511    0.5968    0.0000 C   0  0  0  0  0  0  0  0  0  0  0  0
    2.5153    1.1000    0.0000 Cl  0  0  0  0  0  0  0  0  0  0  0  0
    0.7833    1.0938    0.0000 C   0  0  0  0  0  0  0  0  0  0  0  0
   -0.0809    0.5906    0.0000 C   0  0  0  0  0  0  0  0  0  0  0  0
  1  2  1  0
  2  3  2  0
  2  4  1  0
  4  5  1  0
  5  6  1  0
  6  7  2  0
  7  8  1  0
  8  9  1  0
  8 10  2  0
 10 11  1  0
 11  5  2  0
M  ISO  1   1   2
V    1 *
M  END
>  <symbol>  (243) 
deamino_Phg_4Cl

>  <m_Rgroups>  (243) 
None,[OH],None,None,None,None

>  <m_abbr>  (243) 
deamino_Phg_4Cl

>  <m_name>  (243) 
2-(4-chlorophenyl)acetic acid

>  <m_type>  (243) 
cap

>  <m_subtype>  (243) 
cap

>  <m_chem_types>  (243) 
2:backbone_c

$$$$

     RDKit          2D

  9  8  0  0  0  0  0  0  0  0999 V2000
    1.6354    0.1700    0.0000 R   0  0  0  0  0  0  0  0  0  0  0  0
    0.7684    0.6682    0.0000 C   0  0  0  0  0  0  0  0  0  0  0  0
    0.7664    1.6682    0.0000 O   0  0  0  0  0  0  0  0  0  0  0  0
   -0.0966    0.1664    0.0000 C   0  0  0  0  0  0  0  0  0  0  0  0
   -0.9636    0.6648    0.0000 O   0  0  0  0  0  0  0  0  0  0  0  0
   -1.8286    0.1630    0.0000 R   0  0  0  0  0  0  0  0  0  0  0  0
   -0.0946   -0.8334    0.0000 C   0  0  0  0  0  0  0  0  0  0  0  0
   -0.9596   -1.3352    0.0000 C   0  0  0  0  0  0  0  0  0  0  0  0
    0.7724   -1.3318    0.0000 C   0  0  0  0  0  0  0  0  0  0  0  0
  1  2  1  0
  2  3  2  0
  2  4  1  0
  4  5  1  1
  5  6  1  0
  4  7  1  0
  7  8  1  0
  7  9  1  0
M  ISO  2   1   2   6   4
V    1 *
V    6 *
M  END
>  <symbol>  (244) 
D_OVal

>  <m_Rgroups>  (244) 
None,[OH],None,[H],None,None

>  <m_abbr>  (244) 
D_OVal

>  <m_name>  (244) 
(2R)-2-hydroxy-3-methylbutanoic acid

>  <m_type>  (244) 
cap

>  <m_subtype>  (244) 
cap

>  <m_chem_types>  (244) 
2:backbone_c,4:hydroxyl

$$$$

     RDKit          2D

 10  9  0  0  0  0  0  0  0  0999 V2000
    2.1650    0.0544    0.0000 R   0  0  0  0  0  0  0  0  0  0  0  0
    1.2980    0.5526    0.0000 C   0  0  0  0  0  0  0  0  0  0  0  0
    1.2958    1.5526    0.0000 O   0  0  0  0  0  0  0  0  0  0  0  0
    0.4330    0.0508    0.0000 C   0  0  0  0  0  0  0  0  0  0  0  0
   -0.4342    0.5492    0.0000 C   0  0  0  0  0  0  0  0  0  0  0  0
   -1.2992    0.0474    0.0000 C   0  0  0  0  0  0  0  0  0  0  0  0
   -2.1662    0.5456    0.0000 C   0  0  0  0  0  0  0  0  0  0  0  0
   -1.2972   -0.9526    0.0000 C   0  0  0  0  0  0  0  0  0  0  0  0
    0.4350   -0.9492    0.0000 O   0  0  0  0  0  0  0  0  0  0  0  0
   -0.4300   -1.4508    0.0000 R   0  0  0  0  0  0  0  0  0  0  0  0
  1  2  1  0
  2  3  2  0
  2  4  1  0
  4  5  1  1
  5  6  1  0
  6  7  1  0
  6  8  1  0
  4  9  1  0
  9 10  1  0
M  ISO  2   1   2  10   4
V    1 *
V   10 *
M  END
>  <symbol>  (245) 
OLeu

>  <m_Rgroups>  (245) 
None,[OH],None,[H],None,None

>  <m_abbr>  (245) 
OLeu

>  <m_name>  (245) 
(2S)-2-hydroxy-4-methylpentanoic acid

>  <m_type>  (245) 
cap

>  <m_subtype>  (245) 
cap

>  <m_chem_types>  (245) 
2:backbone_c,4:hydroxyl

$$$$

     RDKit          2D

  8  8  0  0  0  0  0  0  0  0999 V2000
    0.7616    1.9360    0.0000 R   0  0  0  0  0  0  0  0  0  0  0  0
   -0.1054    1.4376    0.0000 C   0  0  0  0  0  0  0  0  0  0  0  0
   -0.1074    0.4378    0.0000 C   0  0  0  0  0  0  0  0  0  0  0  0
   -0.9744   -0.0606    0.0000 C   0  0  0  0  0  0  0  0  0  0  0  0
   -0.9764   -1.0606    0.0000 C   0  0  0  0  0  0  0  0  0  0  0  0
   -0.1114   -1.5622    0.0000 C   0  0  0  0  0  0  0  0  0  0  0  0
    0.7556   -1.0640    0.0000 C   0  0  0  0  0  0  0  0  0  0  0  0
    0.7576   -0.0640    0.0000 C   0  0  0  0  0  0  0  0  0  0  0  0
  1  2  1  0
  2  3  1  0
  3  4  2  0
  4  5  1  0
  5  6  2  0
  6  7  1  0
  7  8  2  0
  8  3  1  0
M  ISO  1   1   2
V    1 *
M  END
>  <symbol>  (246) 
Bn_

>  <m_Rgroups>  (246) 
None,[Br],None,None,None,None

>  <m_abbr>  (246) 
Bn_

>  <m_name>  (246) 
N-Terminal toluene

>  <m_type>  (246) 
cap

>  <m_subtype>  (246) 
cap

>  <m_chem_types>  (246) 
2:backbone_c

$$$$

     RDKit          2D

  9  9  0  0  0  0  0  0  0  0999 V2000
   -2.5955   -0.7314    0.0000 R   0  0  0  0  0  0  0  0  0  0  0  0
   -1.7313   -0.2284    0.0000 O   0  0  0  0  0  0  0  0  0  0  0  0
   -0.8635   -0.7252    0.0000 C   0  0  0  0  0  0  0  0  0  0  0  0
    0.0007   -0.2222    0.0000 C   0  0  0  0  0  0  0  0  0  0  0  0
    0.8687   -0.7192    0.0000 C   0  0  0  0  0  0  0  0  0  0  0  0
    1.7327   -0.2160    0.0000 C   0  0  0  0  0  0  0  0  0  0  0  0
    1.7293    0.7840    0.0000 C   0  0  0  0  0  0  0  0  0  0  0  0
    0.8613    1.2810    0.0000 C   0  0  0  0  0  0  0  0  0  0  0  0
   -0.0027    0.7778    0.0000 C   0  0  0  0  0  0  0  0  0  0  0  0
  1  2  1  0
  2  3  1  0
  3  4  1  0
  4  5  2  0
  5  6  1  0
  6  7  2  0
  7  8  1  0
  8  9  2  0
  9  4  1  0
M  ISO  1   1   1
V    1 *
M  END
>  <symbol>  (247) 
OBn_

>  <m_Rgroups>  (247) 
[H],None,None,None,None,None

>  <m_abbr>  (247) 
OBn_

>  <m_name>  (247) 
N-Terminal phenylmethanol

>  <m_type>  (247) 
cap

>  <m_subtype>  (247) 
cap

>  <m_chem_types>  (247) 
1:backbone_n

$$$$

     RDKit          2D

 13 12  0  0  0  0  0  0  0  0999 V2000
   -3.6635   -0.1995    0.0000 R   0  0  0  0  0  0  0  0  0  0  0  0
   -2.7985    0.3021    0.0000 N   0  0  0  0  0  0  0  0  0  0  0  0
   -2.8005    1.3021    0.0000 R   0  0  0  0  0  0  0  0  0  0  0  0
   -1.9315   -0.1961    0.0000 C   0  0  0  0  0  0  0  0  0  0  0  0
   -1.0665    0.3055    0.0000 C   0  0  0  0  0  0  0  0  0  0  0  0
   -0.1995   -0.1927    0.0000 C   0  0  0  0  0  0  0  0  0  0  0  0
    0.6655    0.3091    0.0000 C   0  0  0  0  0  0  0  0  0  0  0  0
    1.5325   -0.1893    0.0000 C   0  0  0  0  0  0  0  0  0  0  0  0
    1.5345   -1.1891    0.0000 O   0  0  0  0  0  0  0  0  0  0  0  0
    0.6695   -1.6909    0.0000 R   0  0  0  0  0  0  0  0  0  0  0  0
    2.3975    0.3125    0.0000 C   0  0  0  0  0  0  0  0  0  0  0  0
    3.2645   -0.1857    0.0000 R   0  0  0  0  0  0  0  0  0  0  0  0
    2.3955    1.3125    0.0000 O   0  0  0  0  0  0  0  0  0  0  0  0
  1  2  1  0
  2  3  1  0
  2  4  1  0
  4  5  1  0
  5  6  1  0
  6  7  1  0
  7  8  1  0
  8  9  1  0
  9 10  1  0
  8 11  1  0
 11 12  1  0
 11 13  2  0
M  ISO  4   1   1   3   3  10   4  12   2
V    1 *
V    3 *
V   10 *
V   12 *
M  END
>  <symbol>  (248) 
deamino_Lys

>  <m_Rgroups>  (248) 
[H],[OH],[H],[H],None,None

>  <m_abbr>  (248) 
deamino_Lys

>  <m_name>  (248) 
Deamino-Lysine

>  <m_type>  (248) 
aa

>  <m_subtype>  (248) 
cap

>  <m_chem_types>  (248) 
1:backbone_n,2:backbone_c,3:backbone_n_mod,4:hydroxyl

$$$$

     RDKit          2D

 17 17  0  0  0  0  0  0  0  0999 V2000
   -1.7807   -2.7955    0.0000 R   0  0  0  0  0  0  0  0  0  0  0  0
   -1.7815   -1.7955    0.0000 N   0  0  0  0  0  0  0  0  0  0  0  0
   -2.6479   -1.2963    0.0000 R   0  0  0  0  0  0  0  0  0  0  0  0
   -0.9159   -1.2949    0.0000 C   0  0  0  0  0  0  0  0  0  0  0  0
   -0.9167   -0.2949    0.0000 C   0  0  0  0  0  0  0  0  0  0  0  0
   -0.0511    0.2057    0.0000 C   0  0  0  0  0  0  0  0  0  0  0  0
    0.8153   -0.2935    0.0000 C   0  0  0  0  0  0  0  0  0  0  0  0
    1.6809    0.2071    0.0000 C   0  0  0  0  0  0  0  0  0  0  0  0
    1.6801    1.2073    0.0000 C   0  0  0  0  0  0  0  0  0  0  0  0
    0.8137    1.7065    0.0000 C   0  0  0  0  0  0  0  0  0  0  0  0
    0.8129    2.7065    0.0000 N   0  0  0  0  0  0  0  0  0  0  0  0
   -0.0535    3.2057    0.0000 O   0  0  0  0  0  0  0  0  0  0  0  0
    1.6785    3.2071    0.0000 O   0  0  0  0  0  0  0  0  0  0  0  0
   -0.0519    1.2059    0.0000 C   0  0  0  0  0  0  0  0  0  0  0  0
   -0.0495   -1.7941    0.0000 C   0  0  0  0  0  0  0  0  0  0  0  0
    0.8161   -1.2935    0.0000 R   0  0  0  0  0  0  0  0  0  0  0  0
   -0.0487   -2.7941    0.0000 O   0  0  0  0  0  0  0  0  0  0  0  0
  1  2  1  0
  2  3  1  0
  2  4  1  0
  4  5  2  3
  5  6  1  0
  6  7  1  0
  7  8  2  0
  8  9  1  0
  9 10  2  0
 10 11  1  0
 11 12  2  0
 11 13  1  0
 10 14  1  0
  4 15  1  0
 15 16  1  0
 15 17  2  0
 14  6  2  0
M  CHG  2  11   1  13  -1
M  ISO  3   1   1   3   3  16   2
V    1 *
V    3 *
V   16 *
M  END
>  <symbol>  (249) 
Phe_ab_dehydro_3NO2

>  <m_Rgroups>  (249) 
[H],[OH],[H],None,None,None

>  <m_abbr>  (249) 
Phe_ab_dehydro_3NO2

>  <m_name>  (249) 
2-amino-3-(3-nitrophenyl)prop-2-enoic acid

>  <m_type>  (249) 
aa

>  <m_subtype>  (249) 
natural

>  <m_chem_types>  (249) 
1:backbone_n,2:backbone_c,3:backbone_n_mod

$$$$

     RDKit          2D

 15 14  0  0  0  0  0  0  0  0999 V2000
    0.4055   -1.6331    0.0000 R   0  0  0  0  0  0  0  0  0  0  0  0
   -0.4609   -1.1337    0.0000 N   0  0  0  0  0  0  0  0  0  0  0  0
   -1.3267   -1.6345    0.0000 R   0  0  0  0  0  0  0  0  0  0  0  0
   -0.4617   -0.1337    0.0000 C   0  0  0  0  0  0  0  0  0  0  0  0
   -1.3281    0.3655    0.0000 C   0  0  0  0  0  0  0  0  0  0  0  0
   -2.1937   -0.1351    0.0000 C   0  0  0  0  0  0  0  0  0  0  0  0
   -3.0601    0.3641    0.0000 C   0  0  0  0  0  0  0  0  0  0  0  0
   -2.1929   -1.1351    0.0000 C   0  0  0  0  0  0  0  0  0  0  0  0
    0.4039    0.3669    0.0000 C   0  0  0  0  0  0  0  0  0  0  0  0
    1.2703   -0.1323    0.0000 C   0  0  0  0  0  0  0  0  0  0  0  0
    2.1359    0.3683    0.0000 C   0  0  0  0  0  0  0  0  0  0  0  0
    3.0023   -0.1309    0.0000 R   0  0  0  0  0  0  0  0  0  0  0  0
    2.1351    1.3683    0.0000 O   0  0  0  0  0  0  0  0  0  0  0  0
    0.4031    1.3669    0.0000 O   0  0  0  0  0  0  0  0  0  0  0  0
    1.2687    1.8677    0.0000 R   0  0  0  0  0  0  0  0  0  0  0  0
  1  2  1  0
  2  3  1  0
  2  4  1  0
  4  5  1  1
  5  6  1  0
  6  7  1  0
  6  8  1  0
  4  9  1  0
  9 10  1  1
 10 11  1  0
 11 12  1  0
 11 13  2  0
  9 14  1  0
 14 15  1  0
M  ISO  4   1   1   3   3  12   2  15   4
V    1 *
V    3 *
V   12 *
V   15 *
M  END
>  <symbol>  (250) 
Sta_3S4S

>  <m_Rgroups>  (250) 
[H],[OH],[H],[H],None,None

>  <m_abbr>  (250) 
Sta_3S4S

>  <m_name>  (250) 
(3S,4S)-4-amino-3-hydroxy-6-methylheptanoic acid

>  <m_type>  (250) 
aa

>  <m_subtype>  (250) 
natural

>  <m_chem_types>  (250) 
1:backbone_n,2:backbone_c,3:backbone_n_mod,4:hydroxyl

$$$$

     RDKit          2D

 11 10  0  0  0  0  0  0  0  0999 V2000
   -2.6773   -0.7251    0.0000 R   0  0  0  0  0  0  0  0  0  0  0  0
   -1.8109   -0.2259    0.0000 N   0  0  0  0  0  0  0  0  0  0  0  0
   -1.8101    0.7741    0.0000 R   0  0  0  0  0  0  0  0  0  0  0  0
   -0.9453   -0.7265    0.0000 C   0  0  0  0  0  0  0  0  0  0  0  0
   -0.0789   -0.2273    0.0000 C   0  0  0  0  0  0  0  0  0  0  0  0
    0.7867   -0.7279    0.0000 C   0  0  0  0  0  0  0  0  0  0  0  0
    1.6531   -0.2287    0.0000 C   0  0  0  0  0  0  0  0  0  0  0  0
    2.5187   -0.7293    0.0000 R   0  0  0  0  0  0  0  0  0  0  0  0
    1.6539    0.7713    0.0000 O   0  0  0  0  0  0  0  0  0  0  0  0
   -0.0781    0.7727    0.0000 O   0  0  0  0  0  0  0  0  0  0  0  0
    0.7883    1.2721    0.0000 R   0  0  0  0  0  0  0  0  0  0  0  0
  1  2  1  0
  2  3  1  0
  2  4  1  0
  5  4  1  1
  5  6  1  0
  6  7  1  0
  7  8  1  0
  7  9  2  0
  5 10  1  0
 10 11  1  0
M  ISO  4   1   1   3   3   8   2  11   4
V    1 *
V    3 *
V    8 *
V   11 *
M  END
>  <symbol>  (251) 
Bux

>  <m_Rgroups>  (251) 
[H],[OH],[H],[H],None,None

>  <m_abbr>  (251) 
Bux

>  <m_name>  (251) 
(3S)-4-amino-3-hydroxybutanoic acid

>  <m_type>  (251) 
aa

>  <m_subtype>  (251) 
natural

>  <m_chem_types>  (251) 
1:backbone_n,2:backbone_c,3:backbone_n_mod,4:hydroxyl

$$$$

     RDKit          2D

 17 16  0  0  0  0  0  0  0  0999 V2000
   -0.2475   -2.4694    0.0000 R   0  0  0  0  0  0  0  0  0  0  0  0
    0.6761   -2.0196    0.0000 N   0  0  0  0  0  0  0  0  0  0  0  0
    1.4611   -2.6548    0.0000 R   0  0  0  0  0  0  0  0  0  0  0  0
    0.8765   -0.7748    0.0000 C   0  0  0  0  0  0  0  0  0  0  0  0
    0.6143    0.2542    0.0000 C   0  0  0  0  0  0  0  0  0  0  0  0
   -0.3693    0.5612    0.0000 C   0  0  0  0  0  0  0  0  0  0  0  0
   -0.6289    1.5586    0.0000 C   0  0  0  0  0  0  0  0  0  0  0  0
   -1.6149    1.8140    0.0000 C   0  0  0  0  0  0  0  0  0  0  0  0
   -1.9157    2.7784    0.0000 C   0  0  0  0  0  0  0  0  0  0  0  0
   -2.8965    2.9942    0.0000 R   0  0  0  0  0  0  0  0  0  0  0  0
   -1.2447    3.5178    0.0000 O   0  0  0  0  0  0  0  0  0  0  0  0
    1.8665   -0.9180    0.0000 C   0  0  0  0  0  0  0  0  0  0  0  0
    2.2501   -1.8216    0.0000 R   0  0  0  0  0  0  0  0  0  0  0  0
    2.4799   -0.1044    0.0000 O   0  0  0  0  0  0  0  0  0  0  0  0
   -0.1077   -0.9114    0.0000 N   0  0  0  0  0  0  0  0  0  0  0  0
   -0.4915   -1.7028    0.0000 R   0  0  0  0  0  0  0  0  0  0  0  0
   -0.7083   -0.1014    0.0000 R   0  0  0  0  0  0  0  0  0  0  0  0
  1  2  1  0
  2  3  1  0
  2  4  1  0
  4  5  1  0
  5  6  1  0
  6  7  1  0
  7  8  1  0
  8  9  1  0
  9 10  1  0
  9 11  2  0
  4 12  1  0
 12 13  1  0
 12 14  2  0
  4 15  1  0
 15 16  1  0
 15 17  1  0
M  ISO  6   1   1   3   3  10   5  13   2  16   4  17   6
V    1 *
V    3 *
V   10 *
V   13 *
V   16 *
V   17 *
M  END
>  <symbol>  (252) 
Dpm

>  <m_Rgroups>  (252) 
[H],[OH],[H],[H],[OH],[H]

>  <m_abbr>  (252) 
Dpm

>  <m_name>  (252) 
Diaminopimelic acid

>  <m_type>  (252) 
aa

>  <m_subtype>  (252) 
natural

>  <m_chem_types>  (252) 
1:backbone_n,2:backbone_c,3:backbone_n_mod,4:amine_primary,5:carboxyl,6:amine_secondary

$$$$

     RDKit          2D

 10  9  0  0  0  0  0  0  0  0999 V2000
   -1.0360    1.6020    0.0000 R   0  0  0  0  0  0  0  0  0  0  0  0
   -1.0380    0.6020    0.0000 N   0  0  0  0  0  0  0  0  0  0  0  0
   -1.9050    0.1038    0.0000 R   0  0  0  0  0  0  0  0  0  0  0  0
   -0.1730    0.1004    0.0000 C   0  0  0  0  0  0  0  0  0  0  0  0
   -0.1750   -0.8996    0.0000 C   0  0  0  0  0  0  0  0  0  0  0  0
    0.6900   -1.4014    0.0000 Se  0  0  0  0  0  2  0  0  0  0  0  0
    0.6880   -2.4014    0.0000 R   0  0  0  0  0  0  0  0  0  0  0  0
    0.6940    0.5986    0.0000 C   0  0  0  0  0  0  0  0  0  0  0  0
    1.5590    0.0968    0.0000 R   0  0  0  0  0  0  0  0  0  0  0  0
    0.6960    1.5986    0.0000 O   0  0  0  0  0  0  0  0  0  0  0  0
  1  2  1  0
  2  3  1  0
  2  4  1  0
  4  5  1  6
  5  6  1  0
  6  7  1  0
  4  8  1  0
  8  9  1  0
  8 10  2  0
M  ISO  4   1   1   3   3   7   4   9   2
V    1 *
V    3 *
V    7 *
V    9 *
M  END
>  <symbol>  (253) 
seC

>  <m_Rgroups>  (253) 
[H],[OH],[H],[H],None,None

>  <m_abbr>  (253) 
seC

>  <m_name>  (253) 
SelenoCysteine

>  <m_type>  (253) 
aa

>  <m_subtype>  (253) 
natural

>  <m_chem_types>  (253) 
1:backbone_n,2:backbone_c,3:backbone_n_mod,4:selenol

$$$$

     RDKit          2D

 21 20  0  0  0  0  0  0  0  0999 V2000
    0.6927   -4.0728    0.0000 R   0  0  0  0  0  0  0  0  0  0  0  0
    0.6947   -3.0728    0.0000 N   0  0  0  0  0  0  0  0  0  0  0  0
   -0.1703   -2.5710    0.0000 R   0  0  0  0  0  0  0  0  0  0  0  0
    1.5619   -2.5744    0.0000 C   0  0  0  0  0  0  0  0  0  0  0  0
    1.5639   -1.5744    0.0000 C   0  0  0  0  0  0  0  0  0  0  0  0
    0.6989   -1.0728    0.0000 C   0  0  0  0  0  0  0  0  0  0  0  0
    0.7009   -0.0728    0.0000 C   0  0  0  0  0  0  0  0  0  0  0  0
   -0.1641    0.4290    0.0000 C   0  0  0  0  0  0  0  0  0  0  0  0
   -0.1621    1.4288    0.0000 N   0  0  0  0  0  0  0  0  0  0  0  0
    0.7049    1.9272    0.0000 R   0  0  0  0  0  0  0  0  0  0  0  0
   -1.0271    1.9306    0.0000 C   0  0  0  0  0  0  0  0  0  0  0  0
   -1.8941    1.4324    0.0000 N   0  0  0  0  0  0  0  0  0  0  0  0
   -2.7591    1.9340    0.0000 C   0  0  0  0  0  0  0  0  0  0  0  0
   -3.6263    1.4358    0.0000 C   0  0  0  0  0  0  0  0  0  0  0  0
   -1.0251    2.9306    0.0000 N   0  0  0  0  0  0  0  0  0  0  0  0
   -0.1581    3.4288    0.0000 R   0  0  0  0  0  0  0  0  0  0  0  0
   -1.8901    3.4322    0.0000 C   0  0  0  0  0  0  0  0  0  0  0  0
   -1.8881    4.4322    0.0000 C   0  0  0  0  0  0  0  0  0  0  0  0
    2.4269   -3.0762    0.0000 C   0  0  0  0  0  0  0  0  0  0  0  0
    2.4249   -4.0762    0.0000 R   0  0  0  0  0  0  0  0  0  0  0  0
    3.2939   -2.5780    0.0000 O   0  0  0  0  0  0  0  0  0  0  0  0
  1  2  1  0
  2  3  1  0
  2  4  1  0
  4  5  1  1
  5  6  1  0
  6  7  1  0
  7  8  1  0
  8  9  1  0
  9 10  1  0
  9 11  1  0
 11 12  2  3
 12 13  1  0
 13 14  1  0
 11 15  1  0
 15 16  1  0
 15 17  1  0
 17 18  1  0
  4 19  1  0
 19 20  1  0
 19 21  2  0
M  ISO  5   1   1   3   3  10   4  16   5  20   2
V    1 *
V    3 *
V   10 *
V   16 *
V   20 *
M  END
>  <symbol>  (254) 
L_hArg(Et,Et)

>  <m_Rgroups>  (254) 
[H],[OH],[H],[H],[H],None

>  <m_abbr>  (254) 
L_hArg(Et,Et)

>  <m_name>  (254) 
(2S)-2-amino-6-{[bis(ethylamino)methylidene]amino}hexanoic acid

>  <m_type>  (254) 
aa

>  <m_subtype>  (254) 
natural

>  <m_chem_types>  (254) 
1:backbone_n,2:backbone_c,3:backbone_n_mod,4:guanidinium,5:guanidinium

$$$$

     RDKit          2D

 12 11  0  0  0  0  0  0  0  0999 V2000
   -1.1505    2.0855    0.0000 R   0  0  0  0  0  0  0  0  0  0  0  0
   -1.1525    1.0857    0.0000 N   0  0  0  0  0  0  0  0  0  0  0  0
   -2.0195    0.5873    0.0000 R   0  0  0  0  0  0  0  0  0  0  0  0
   -0.2875    0.5839    0.0000 C   0  0  0  0  0  0  0  0  0  0  0  0
   -0.2895   -0.4161    0.0000 C   0  0  0  0  0  0  0  0  0  0  0  0
    0.5755   -0.9177    0.0000 C   0  0  0  0  0  0  0  0  0  0  0  0
    0.5735   -1.9177    0.0000 S   0  0  0  0  0  0  0  0  0  0  0  0
    1.4385   -2.4195    0.0000 C   0  0  0  0  0  0  0  0  0  0  0  0
   -0.2935   -2.4161    0.0000 O   0  0  0  0  0  0  0  0  0  0  0  0
    0.5795    1.0821    0.0000 C   0  0  0  0  0  0  0  0  0  0  0  0
    1.4445    0.5805    0.0000 R   0  0  0  0  0  0  0  0  0  0  0  0
    0.5815    2.0821    0.0000 O   0  0  0  0  0  0  0  0  0  0  0  0
  1  2  1  0
  2  3  1  0
  2  4  1  0
  4  5  1  6
  5  6  1  0
  6  7  1  0
  7  8  1  0
  7  9  1  0
  4 10  1  0
 10 11  1  0
 10 12  2  0
M  CHG  2   7   1   9  -1
M  ISO  3   1   1   3   3  11   2
V    1 *
V    3 *
V   11 *
M  END
>  <symbol>  (255) 
Met_O

>  <m_Rgroups>  (255) 
[H],[OH],[H],None,None,None

>  <m_abbr>  (255) 
Met_O

>  <m_name>  (255) 
(2S)-2-amino-4-methanesulfinylbutanoic acid

>  <m_type>  (255) 
aa

>  <m_subtype>  (255) 
natural

>  <m_chem_types>  (255) 
1:backbone_n,2:backbone_c,3:backbone_n_mod

$$$$

     RDKit          2D

 15 15  0  0  0  0  0  0  0  0999 V2000
   -0.9144   -2.6033    0.0000 R   0  0  0  0  0  0  0  0  0  0  0  0
   -0.9180   -1.6033    0.0000 N   0  0  0  0  0  0  0  0  0  0  0  0
   -1.7858   -1.1063    0.0000 R   0  0  0  0  0  0  0  0  0  0  0  0
   -0.0538   -1.1001    0.0000 C   0  0  0  0  0  0  0  0  0  0  0  0
    0.8140   -1.5971    0.0000 C   0  0  0  0  0  0  0  0  0  0  0  0
    0.8176   -2.5969    0.0000 R   0  0  0  0  0  0  0  0  0  0  0  0
    1.6782   -1.0939    0.0000 O   0  0  0  0  0  0  0  0  0  0  0  0
   -0.0574   -0.1003    0.0000 C   0  0  0  0  0  0  0  0  0  0  0  0
   -0.9252    0.3967    0.0000 C   0  0  0  0  0  0  0  0  0  0  0  0
   -0.9288    1.3967    0.0000 C   0  0  0  0  0  0  0  0  0  0  0  0
   -0.0646    1.8999    0.0000 C   0  0  0  0  0  0  0  0  0  0  0  0
   -0.0682    2.8997    0.0000 O   0  0  0  0  0  0  0  0  0  0  0  0
    0.7960    3.4029    0.0000 R   0  0  0  0  0  0  0  0  0  0  0  0
    0.8032    1.4029    0.0000 C   0  0  0  0  0  0  0  0  0  0  0  0
    0.8068    0.4029    0.0000 C   0  0  0  0  0  0  0  0  0  0  0  0
  1  2  1  0
  2  3  1  0
  4  2  1  1
  4  5  1  0
  5  6  1  0
  5  7  2  0
  4  8  1  0
  8  9  1  0
  9 10  2  0
 10 11  1  0
 11 12  1  0
 12 13  1  0
 11 14  2  0
 14 15  1  0
 15  8  2  0
M  ISO  4   1   1   3   3   6   2  13   4
V    1 *
V    3 *
V    6 *
V   13 *
M  END
>  <symbol>  (256) 
nTyr

>  <m_Rgroups>  (256) 
[H],[OH],[H],[H],None,None

>  <m_abbr>  (256) 
nTyr

>  <m_name>  (256) 
(2S)-2-amino-2-(4-hydroxyphenyl)acetic acid

>  <m_type>  (256) 
aa

>  <m_subtype>  (256) 
natural

>  <m_chem_types>  (256) 
1:backbone_n,2:backbone_c,3:backbone_n_mod,4:hydroxyl_phenolic

$$$$

     RDKit          2D

 13 14  0  0  0  0  0  0  0  0999 V2000
   -0.1680    1.7363    0.0000 R   0  0  0  0  0  0  0  0  0  0  0  0
   -0.0136    0.7483    0.0000 N   0  0  0  0  0  0  0  0  0  0  0  0
    0.8766    0.2925    0.0000 C   0  0  0  0  0  0  0  0  0  0  0  0
    1.7684    0.7447    0.0000 C   0  0  0  0  0  0  0  0  0  0  0  0
    2.6060    0.1985    0.0000 R   0  0  0  0  0  0  0  0  0  0  0  0
    1.8228    1.7433    0.0000 O   0  0  0  0  0  0  0  0  0  0  0  0
    0.7180   -0.6947    0.0000 C   0  0  0  0  0  0  0  0  0  0  0  0
   -0.2700   -0.8493    0.0000 C   0  0  0  0  0  0  0  0  0  0  0  0
   -0.8162   -1.6867    0.0000 C   0  0  0  0  0  0  0  0  0  0  0  0
   -1.8148   -1.6323    0.0000 C   0  0  0  0  0  0  0  0  0  0  0  0
   -2.2670   -0.7405    0.0000 C   0  0  0  0  0  0  0  0  0  0  0  0
   -1.7206    0.0971    0.0000 C   0  0  0  0  0  0  0  0  0  0  0  0
   -0.7220    0.0427    0.0000 C   0  0  0  0  0  0  0  0  0  0  0  0
  1  2  1  0
  2  3  1  0
  3  4  1  6
  4  5  1  0
  4  6  2  0
  3  7  1  0
  8  7  1  1
  8  9  1  0
  9 10  1  0
 10 11  1  0
 11 12  1  0
 13 12  1  6
 13  2  1  0
 13  8  1  0
M  ISO  2   1   1   5   2
V    1 *
V    5 *
M  END
>  <symbol>  (257) 
Oic_3aR_7aS

>  <m_Rgroups>  (257) 
[H],[OH],None,None,None,None

>  <m_abbr>  (257) 
Oic_3aR_7aS

>  <m_name>  (257) 
(2S,3aR,7aS)-octahydro-1H-indole-2-carboxylic acid

>  <m_type>  (257) 
aa

>  <m_subtype>  (257) 
natural

>  <m_chem_types>  (257) 
1:backbone_n,2:backbone_c

$$$$

     RDKit          2D

 13 14  0  0  0  0  0  0  0  0999 V2000
   -0.1680    1.7363    0.0000 R   0  0  0  0  0  0  0  0  0  0  0  0
   -0.0136    0.7483    0.0000 N   0  0  0  0  0  0  0  0  0  0  0  0
   -0.7220    0.0427    0.0000 C   0  0  0  0  0  0  0  0  0  0  0  0
   -1.7206    0.0971    0.0000 C   0  0  0  0  0  0  0  0  0  0  0  0
   -2.2670   -0.7405    0.0000 C   0  0  0  0  0  0  0  0  0  0  0  0
   -1.8148   -1.6323    0.0000 C   0  0  0  0  0  0  0  0  0  0  0  0
   -0.8162   -1.6867    0.0000 C   0  0  0  0  0  0  0  0  0  0  0  0
   -0.2700   -0.8493    0.0000 C   0  0  0  0  0  0  0  0  0  0  0  0
    0.7180   -0.6947    0.0000 C   0  0  0  0  0  0  0  0  0  0  0  0
    0.8766    0.2925    0.0000 C   0  0  0  0  0  0  0  0  0  0  0  0
    1.7684    0.7447    0.0000 C   0  0  0  0  0  0  0  0  0  0  0  0
    2.6060    0.1985    0.0000 R   0  0  0  0  0  0  0  0  0  0  0  0
    1.8228    1.7433    0.0000 O   0  0  0  0  0  0  0  0  0  0  0  0
  1  2  1  0
  2  3  1  0
  3  4  1  0
  4  5  1  0
  5  6  1  0
  6  7  1  0
  7  8  1  0
  8  9  1  0
  9 10  1  0
 10 11  1  6
 11 12  1  0
 11 13  2  0
 10  2  1  0
  8  3  1  0
M  ISO  2   1   1  12   2
V    1 *
V   12 *
M  END
>  <symbol>  (258) 
Oic_3axi_7axi

>  <m_Rgroups>  (258) 
[H],[OH],None,None,None,None

>  <m_abbr>  (258) 
Oic_3axi_7axi

>  <m_name>  (258) 
(2S)-octahydro-1H-indole-2-carboxylic acid

>  <m_type>  (258) 
aa

>  <m_subtype>  (258) 
natural

>  <m_chem_types>  (258) 
1:backbone_n,2:backbone_c

$$$$

     RDKit          2D

 15 15  0  0  0  0  0  0  0  0999 V2000
   -0.1714   -2.3002    0.0000 R   0  0  0  0  0  0  0  0  0  0  0  0
   -0.1722   -1.3002    0.0000 N   0  0  0  0  0  0  0  0  0  0  0  0
   -1.0386   -0.8008    0.0000 R   0  0  0  0  0  0  0  0  0  0  0  0
    0.6934   -0.7994    0.0000 C   0  0  0  0  0  0  0  0  0  0  0  0
    0.6926    0.2006    0.0000 C   0  0  0  0  0  0  0  0  0  0  0  0
   -0.1736    0.6998    0.0000 C   0  0  0  0  0  0  0  0  0  0  0  0
   -1.0394    0.1992    0.0000 C   0  0  0  0  0  0  0  0  0  0  0  0
   -1.9058    0.6984    0.0000 C   0  0  0  0  0  0  0  0  0  0  0  0
   -1.9066    1.6986    0.0000 C   0  0  0  0  0  0  0  0  0  0  0  0
   -1.0410    2.1990    0.0000 C   0  0  0  0  0  0  0  0  0  0  0  0
   -0.1744    1.7000    0.0000 C   0  0  0  0  0  0  0  0  0  0  0  0
    0.6910    2.2006    0.0000 F   0  0  0  0  0  0  0  0  0  0  0  0
    1.5598   -1.2988    0.0000 C   0  0  0  0  0  0  0  0  0  0  0  0
    1.5606   -2.2988    0.0000 R   0  0  0  0  0  0  0  0  0  0  0  0
    2.4254   -0.7980    0.0000 O   0  0  0  0  0  0  0  0  0  0  0  0
  1  2  1  0
  2  3  1  0
  2  4  1  0
  4  5  1  1
  5  6  1  0
  6  7  2  0
  7  8  1  0
  8  9  2  0
  9 10  1  0
 10 11  2  0
 11 12  1  0
  4 13  1  0
 13 14  1  0
 13 15  2  0
 11  6  1  0
M  ISO  3   1   1   3   3  14   2
V    1 *
V    3 *
V   14 *
M  END
>  <symbol>  (259) 
Phe_2F

>  <m_Rgroups>  (259) 
[H],[OH],[H],None,None,None

>  <m_abbr>  (259) 
Phe_2F

>  <m_name>  (259) 
(2S)-2-amino-3-(2-fluorophenyl)propanoic acid

>  <m_type>  (259) 
aa

>  <m_subtype>  (259) 
natural

>  <m_chem_types>  (259) 
1:backbone_n,2:backbone_c,3:backbone_n_mod

$$$$

     RDKit          2D

 15 15  0  0  0  0  0  0  0  0999 V2000
   -0.0559   -2.3667    0.0000 R   0  0  0  0  0  0  0  0  0  0  0  0
   -0.0567   -1.3667    0.0000 N   0  0  0  0  0  0  0  0  0  0  0  0
   -0.9231   -0.8673    0.0000 R   0  0  0  0  0  0  0  0  0  0  0  0
    0.8089   -0.8659    0.0000 C   0  0  0  0  0  0  0  0  0  0  0  0
    0.8081    0.1341    0.0000 C   0  0  0  0  0  0  0  0  0  0  0  0
   -0.0581    0.6333    0.0000 C   0  0  0  0  0  0  0  0  0  0  0  0
   -0.9239    0.1327    0.0000 C   0  0  0  0  0  0  0  0  0  0  0  0
   -1.7903    0.6319    0.0000 C   0  0  0  0  0  0  0  0  0  0  0  0
   -1.7911    1.6319    0.0000 C   0  0  0  0  0  0  0  0  0  0  0  0
   -0.9253    2.1325    0.0000 C   0  0  0  0  0  0  0  0  0  0  0  0
   -0.9261    3.1327    0.0000 F   0  0  0  0  0  0  0  0  0  0  0  0
   -0.0589    1.6333    0.0000 C   0  0  0  0  0  0  0  0  0  0  0  0
    1.6753   -1.3653    0.0000 C   0  0  0  0  0  0  0  0  0  0  0  0
    1.6761   -2.3653    0.0000 R   0  0  0  0  0  0  0  0  0  0  0  0
    2.5409   -0.8647    0.0000 O   0  0  0  0  0  0  0  0  0  0  0  0
  1  2  1  0
  2  3  1  0
  2  4  1  0
  4  5  1  1
  5  6  1  0
  6  7  2  0
  7  8  1  0
  8  9  2  0
  9 10  1  0
 10 11  1  0
 10 12  2  0
  4 13  1  0
 13 14  1  0
 13 15  2  0
 12  6  1  0
M  ISO  3   1   1   3   3  14   2
V    1 *
V    3 *
V   14 *
M  END
>  <symbol>  (260) 
Phe_3F

>  <m_Rgroups>  (260) 
[H],[OH],[H],None,None,None

>  <m_abbr>  (260) 
Phe_3F

>  <m_name>  (260) 
(2S)-2-amino-3-(3-fluorophenyl)propanoic acid

>  <m_type>  (260) 
aa

>  <m_subtype>  (260) 
natural

>  <m_chem_types>  (260) 
1:backbone_n,2:backbone_c,3:backbone_n_mod

$$$$

     RDKit          2D

 15 15  0  0  0  0  0  0  0  0999 V2000
    0.0494   -2.3001    0.0000 R   0  0  0  0  0  0  0  0  0  0  0  0
    0.0530   -1.3003    0.0000 N   0  0  0  0  0  0  0  0  0  0  0  0
   -0.8112   -0.7971    0.0000 R   0  0  0  0  0  0  0  0  0  0  0  0
    0.9208   -0.8033    0.0000 C   0  0  0  0  0  0  0  0  0  0  0  0
    0.9244    0.1967    0.0000 C   0  0  0  0  0  0  0  0  0  0  0  0
    0.0604    0.6997    0.0000 C   0  0  0  0  0  0  0  0  0  0  0  0
   -0.8076    0.2027    0.0000 C   0  0  0  0  0  0  0  0  0  0  0  0
   -1.6716    0.7059    0.0000 C   0  0  0  0  0  0  0  0  0  0  0  0
   -1.6682    1.7059    0.0000 C   0  0  0  0  0  0  0  0  0  0  0  0
   -2.5324    2.2091    0.0000 F   0  0  0  0  0  0  0  0  0  0  0  0
   -0.8004    2.2029    0.0000 C   0  0  0  0  0  0  0  0  0  0  0  0
    0.0638    1.6997    0.0000 C   0  0  0  0  0  0  0  0  0  0  0  0
    1.7850   -1.3065    0.0000 C   0  0  0  0  0  0  0  0  0  0  0  0
    1.7814   -2.3063    0.0000 R   0  0  0  0  0  0  0  0  0  0  0  0
    2.6528   -0.8095    0.0000 O   0  0  0  0  0  0  0  0  0  0  0  0
  1  2  1  0
  2  3  1  0
  2  4  1  0
  4  5  1  1
  5  6  1  0
  6  7  1  0
  7  8  2  0
  8  9  1  0
  9 10  1  0
  9 11  2  0
 11 12  1  0
  4 13  1  0
 13 14  1  0
 13 15  2  0
 12  6  2  0
M  ISO  3   1   1   3   3  14   2
V    1 *
V    3 *
V   14 *
M  END
>  <symbol>  (261) 
Phe_4F

>  <m_Rgroups>  (261) 
[H],[OH],[H],None,None,None

>  <m_abbr>  (261) 
Phe_4F

>  <m_name>  (261) 
(2S)-2-amino-3-(4-fluorophenyl)propanoic acid

>  <m_type>  (261) 
aa

>  <m_subtype>  (261) 
natural

>  <m_chem_types>  (261) 
1:backbone_n,2:backbone_c,3:backbone_n_mod

$$$$

     RDKit          2D

 17 17  0  0  0  0  0  0  0  0999 V2000
    0.3982   -2.5896    0.0000 R   0  0  0  0  0  0  0  0  0  0  0  0
    0.4018   -1.5896    0.0000 N   0  0  0  0  0  0  0  0  0  0  0  0
   -0.4624   -1.0866    0.0000 R   0  0  0  0  0  0  0  0  0  0  0  0
    1.2696   -1.0928    0.0000 C   0  0  0  0  0  0  0  0  0  0  0  0
    1.2732   -0.0928    0.0000 C   0  0  0  0  0  0  0  0  0  0  0  0
    0.4090    0.4102    0.0000 C   0  0  0  0  0  0  0  0  0  0  0  0
   -0.4588   -0.0866    0.0000 C   0  0  0  0  0  0  0  0  0  0  0  0
   -1.3230    0.4166    0.0000 C   0  0  0  0  0  0  0  0  0  0  0  0
   -1.3194    1.4164    0.0000 C   0  0  0  0  0  0  0  0  0  0  0  0
   -2.1836    1.9196    0.0000 N   0  0  0  0  0  0  0  0  0  0  0  0
   -3.0514    1.4226    0.0000 O   0  0  0  0  0  0  0  0  0  0  0  0
   -2.1800    2.9196    0.0000 O   0  0  0  0  0  0  0  0  0  0  0  0
   -0.4516    1.9134    0.0000 C   0  0  0  0  0  0  0  0  0  0  0  0
    0.4126    1.4102    0.0000 C   0  0  0  0  0  0  0  0  0  0  0  0
    2.1338   -1.5958    0.0000 C   0  0  0  0  0  0  0  0  0  0  0  0
    2.1302   -2.5958    0.0000 R   0  0  0  0  0  0  0  0  0  0  0  0
    3.0016   -1.0990    0.0000 O   0  0  0  0  0  0  0  0  0  0  0  0
  1  2  1  0
  2  3  1  0
  2  4  1  0
  4  5  1  1
  5  6  1  0
  6  7  1  0
  7  8  2  0
  8  9  1  0
  9 10  1  0
 10 11  2  0
 10 12  1  0
  9 13  2  0
 13 14  1  0
  4 15  1  0
 15 16  1  0
 15 17  2  0
 14  6  2  0
M  CHG  2  10   1  12  -1
M  ISO  3   1   1   3   3  16   2
V    1 *
V    3 *
V   16 *
M  END
>  <symbol>  (262) 
Phe_4NO2

>  <m_Rgroups>  (262) 
[H],[OH],[H],None,None,None

>  <m_abbr>  (262) 
Phe_4NO2

>  <m_name>  (262) 
(2S)-2-amino-3-(4-nitrophenyl)propanoic acid

>  <m_type>  (262) 
aa

>  <m_subtype>  (262) 
natural

>  <m_chem_types>  (262) 
1:backbone_n,2:backbone_c,3:backbone_n_mod

$$$$

     RDKit          2D

 16 16  0  0  0  0  0  0  0  0999 V2000
   -0.3183   -2.2405    0.0000 R   0  0  0  0  0  0  0  0  0  0  0  0
   -0.3147   -1.2405    0.0000 N   0  0  0  0  0  0  0  0  0  0  0  0
   -1.1789   -0.7373    0.0000 R   0  0  0  0  0  0  0  0  0  0  0  0
    0.5531   -0.7435    0.0000 C   0  0  0  0  0  0  0  0  0  0  0  0
    1.4173   -1.2467    0.0000 C   0  0  0  0  0  0  0  0  0  0  0  0
    1.4137   -2.2467    0.0000 R   0  0  0  0  0  0  0  0  0  0  0  0
    2.2851   -0.7497    0.0000 O   0  0  0  0  0  0  0  0  0  0  0  0
    0.5567    0.2563    0.0000 C   0  0  0  0  0  0  0  0  0  0  0  0
    1.5567    0.2527    0.0000 C   0  0  0  0  0  0  0  0  0  0  0  0
    1.0597    1.1207    0.0000 C   0  0  0  0  0  0  0  0  0  0  0  0
   -0.3075    0.7595    0.0000 C   0  0  0  0  0  0  0  0  0  0  0  0
   -1.1753    0.2625    0.0000 C   0  0  0  0  0  0  0  0  0  0  0  0
   -2.0395    0.7657    0.0000 C   0  0  0  0  0  0  0  0  0  0  0  0
   -2.0359    1.7657    0.0000 C   0  0  0  0  0  0  0  0  0  0  0  0
   -1.1681    2.2627    0.0000 C   0  0  0  0  0  0  0  0  0  0  0  0
   -0.3039    1.7595    0.0000 C   0  0  0  0  0  0  0  0  0  0  0  0
  1  2  1  0
  2  3  1  0
  4  2  1  1
  4  5  1  0
  5  6  1  0
  5  7  2  0
  4  8  1  0
  8  9  1  0
  8 10  1  0
  8 11  1  0
 11 12  2  0
 12 13  1  0
 13 14  2  0
 14 15  1  0
 15 16  2  0
 16 11  1  0
M  ISO  3   1   1   3   3   6   2
V    1 *
V    3 *
V    6 *
M  END
>  <symbol>  (263) 
Phe_bbdiMe

>  <m_Rgroups>  (263) 
[H],[OH],[H],None,None,None

>  <m_abbr>  (263) 
Phe_bbdiMe

>  <m_name>  (263) 
(2S)-2-amino-3-methyl-3-phenylbutanoic acid

>  <m_type>  (263) 
aa

>  <m_subtype>  (263) 
natural

>  <m_chem_types>  (263) 
1:backbone_n,2:backbone_c,3:backbone_n_mod

$$$$

     RDKit          2D

 20 21  0  0  0  0  0  0  0  0999 V2000
   -0.0472   -3.2324    0.0000 R   0  0  0  0  0  0  0  0  0  0  0  0
   -0.0468   -2.2325    0.0000 N   0  0  0  0  0  0  0  0  0  0  0  0
   -0.9126   -1.7323    0.0000 R   0  0  0  0  0  0  0  0  0  0  0  0
    0.8194   -1.7329    0.0000 C   0  0  0  0  0  0  0  0  0  0  0  0
    0.8198   -0.7329    0.0000 C   0  0  0  0  0  0  0  0  0  0  0  0
   -0.0458   -0.2325    0.0000 C   0  0  0  0  0  0  0  0  0  0  0  0
   -0.9596   -0.6385    0.0000 C   0  0  0  0  0  0  0  0  0  0  0  0
   -1.6284    0.1049    0.0000 N   0  0  0  0  0  0  0  0  0  0  0  0
   -2.6228    0.0009    0.0000 R   0  0  0  0  0  0  0  0  0  0  0  0
   -1.1278    0.9706    0.0000 C   0  0  0  0  0  0  0  0  0  0  0  0
   -1.4362    1.9219    0.0000 C   0  0  0  0  0  0  0  0  0  0  0  0
   -0.7668    2.6647    0.0000 C   0  0  0  0  0  0  0  0  0  0  0  0
    0.2112    2.4560    0.0000 C   0  0  0  0  0  0  0  0  0  0  0  0
    0.8808    3.1988    0.0000 O   0  0  0  0  0  0  0  0  0  0  0  0
    0.5722    4.1501    0.0000 R   0  0  0  0  0  0  0  0  0  0  0  0
    0.5196    1.5048    0.0000 C   0  0  0  0  0  0  0  0  0  0  0  0
   -0.1498    0.7620    0.0000 C   0  0  0  0  0  0  0  0  0  0  0  0
    1.6850   -2.2333    0.0000 C   0  0  0  0  0  0  0  0  0  0  0  0
    1.6846   -3.2333    0.0000 R   0  0  0  0  0  0  0  0  0  0  0  0
    2.5514   -1.7337    0.0000 O   0  0  0  0  0  0  0  0  0  0  0  0
  1  2  1  0
  2  3  1  0
  2  4  1  0
  4  5  1  1
  5  6  1  0
  6  7  2  0
  7  8  1  0
  8  9  1  0
  8 10  1  0
 10 11  1  0
 11 12  2  0
 12 13  1  0
 13 14  1  0
 14 15  1  0
 13 16  2  0
 16 17  1  0
  4 18  1  0
 18 19  1  0
 18 20  2  0
 17  6  1  0
 17 10  2  0
M  ISO  5   1   1   3   3   9   5  15   4  19   2
V    1 *
V    3 *
V    9 *
V   15 *
V   19 *
M  END
>  <symbol>  (264) 
Trp_5OH

>  <m_Rgroups>  (264) 
[H],[OH],[H],[H],[H],None

>  <m_abbr>  (264) 
Trp_5OH

>  <m_name>  (264) 
(2S)-2-amino-3-(5-hydroxy-1H-indol-3-yl)propanoic acid

>  <m_type>  (264) 
aa

>  <m_subtype>  (264) 
natural

>  <m_chem_types>  (264) 
1:backbone_n,2:backbone_c,3:backbone_n_mod,4:hydroxyl_phenolic,5:aromatic_nh

$$$$

     RDKit          2D

 19 20  0  0  0  0  0  0  0  0999 V2000
   -1.9253   -2.8925    0.0000 R   0  0  0  0  0  0  0  0  0  0  0  0
   -1.9275   -1.8923    0.0000 N   0  0  0  0  0  0  0  0  0  0  0  0
   -2.7947   -1.3941    0.0000 R   0  0  0  0  0  0  0  0  0  0  0  0
   -1.0625   -1.3905    0.0000 C   0  0  0  0  0  0  0  0  0  0  0  0
   -1.0647   -0.3905    0.0000 C   0  0  0  0  0  0  0  0  0  0  0  0
   -0.1999    0.1113    0.0000 C   0  0  0  0  0  0  0  0  0  0  0  0
    0.7147   -0.2933    0.0000 C   0  0  0  0  0  0  0  0  0  0  0  0
    1.3823    0.4511    0.0000 N   0  0  0  0  0  0  0  0  0  0  0  0
    2.3769    0.3489    0.0000 O   0  0  0  0  0  0  0  0  0  0  0  0
    2.9629    1.1591    0.0000 C   0  0  0  0  0  0  0  0  0  0  0  0
    0.8803    1.3161    0.0000 C   0  0  0  0  0  0  0  0  0  0  0  0
    1.1873    2.2677    0.0000 C   0  0  0  0  0  0  0  0  0  0  0  0
    0.5167    3.0095    0.0000 C   0  0  0  0  0  0  0  0  0  0  0  0
   -0.4611    2.7995    0.0000 C   0  0  0  0  0  0  0  0  0  0  0  0
   -0.7681    1.8477    0.0000 C   0  0  0  0  0  0  0  0  0  0  0  0
   -0.0973    1.1061    0.0000 C   0  0  0  0  0  0  0  0  0  0  0  0
   -0.1955   -1.8887    0.0000 C   0  0  0  0  0  0  0  0  0  0  0  0
   -0.1935   -2.8887    0.0000 R   0  0  0  0  0  0  0  0  0  0  0  0
    0.6693   -1.3871    0.0000 O   0  0  0  0  0  0  0  0  0  0  0  0
  1  2  1  0
  2  3  1  0
  2  4  1  0
  4  5  1  1
  5  6  1  0
  6  7  2  0
  7  8  1  0
  8  9  1  0
  9 10  1  0
  8 11  1  0
 11 12  2  0
 12 13  1  0
 13 14  2  0
 14 15  1  0
 15 16  2  0
  4 17  1  0
 17 18  1  0
 17 19  2  0
 16  6  1  0
 16 11  1  0
M  ISO  3   1   1   3   3  18   2
V    1 *
V    3 *
V   18 *
M  END
>  <symbol>  (265) 
Trp_Ome

>  <m_Rgroups>  (265) 
[H],[OH],[H],None,None,None

>  <m_abbr>  (265) 
Trp_Ome

>  <m_name>  (265) 
(2S)-2-amino-3-(1-methoxy-1H-indol-3-yl)propanoic acid

>  <m_type>  (265) 
aa

>  <m_subtype>  (265) 
natural

>  <m_chem_types>  (265) 
1:backbone_n,2:backbone_c,3:backbone_n_mod

$$$$

     RDKit          2D

 18 18  0  0  0  0  0  0  0  0999 V2000
    0.4277   -2.5841    0.0000 R   0  0  0  0  0  0  0  0  0  0  0  0
    0.4297   -1.5841    0.0000 N   0  0  0  0  0  0  0  0  0  0  0  0
   -0.4353   -1.0825    0.0000 R   0  0  0  0  0  0  0  0  0  0  0  0
    1.2969   -1.0859    0.0000 C   0  0  0  0  0  0  0  0  0  0  0  0
    1.2989   -0.0859    0.0000 C   0  0  0  0  0  0  0  0  0  0  0  0
    0.4339    0.4157    0.0000 C   0  0  0  0  0  0  0  0  0  0  0  0
    0.4357    1.4157    0.0000 C   0  0  0  0  0  0  0  0  0  0  0  0
   -0.4291    1.9175    0.0000 C   0  0  0  0  0  0  0  0  0  0  0  0
   -0.4271    2.9175    0.0000 I   0  0  0  0  0  0  0  0  0  0  0  0
   -1.2963    1.4193    0.0000 C   0  0  0  0  0  0  0  0  0  0  0  0
   -2.1613    1.9209    0.0000 O   0  0  0  0  0  0  0  0  0  0  0  0
   -3.0283    1.4227    0.0000 R   0  0  0  0  0  0  0  0  0  0  0  0
   -1.2981    0.4193    0.0000 C   0  0  0  0  0  0  0  0  0  0  0  0
   -2.1653   -0.0791    0.0000 I   0  0  0  0  0  0  0  0  0  0  0  0
   -0.4333   -0.0825    0.0000 C   0  0  0  0  0  0  0  0  0  0  0  0
    2.1619   -1.5877    0.0000 C   0  0  0  0  0  0  0  0  0  0  0  0
    2.1597   -2.5877    0.0000 R   0  0  0  0  0  0  0  0  0  0  0  0
    3.0289   -1.0893    0.0000 O   0  0  0  0  0  0  0  0  0  0  0  0
  1  2  1  0
  2  3  1  0
  2  4  1  0
  4  5  1  1
  5  6  1  0
  6  7  2  0
  7  8  1  0
  8  9  1  0
  8 10  2  0
 10 11  1  0
 11 12  1  0
 10 13  1  0
 13 14  1  0
 13 15  2  0
  4 16  1  0
 16 17  1  0
 16 18  2  0
 15  6  1  0
M  ISO  4   1   1   3   3  12   4  17   2
V    1 *
V    3 *
V   12 *
V   17 *
M  END
>  <symbol>  (266) 
Tyr_35diI

>  <m_Rgroups>  (266) 
[H],[OH],[H],[H],None,None

>  <m_abbr>  (266) 
Tyr_35diI

>  <m_name>  (266) 
(2S)-2-amino-3-(4-hydroxy-3,5-diiodophenyl)propanoic acid

>  <m_type>  (266) 
aa

>  <m_subtype>  (266) 
natural

>  <m_chem_types>  (266) 
1:backbone_n,2:backbone_c,3:backbone_n_mod,4:hydroxyl_phenolic

$$$$

     RDKit          2D

 18 18  0  0  0  0  0  0  0  0999 V2000
    0.3871   -2.7775    0.0000 R   0  0  0  0  0  0  0  0  0  0  0  0
    0.3863   -1.7775    0.0000 N   0  0  0  0  0  0  0  0  0  0  0  0
   -0.4801   -1.2781    0.0000 R   0  0  0  0  0  0  0  0  0  0  0  0
    1.2519   -1.2767    0.0000 C   0  0  0  0  0  0  0  0  0  0  0  0
    1.2511   -0.2767    0.0000 C   0  0  0  0  0  0  0  0  0  0  0  0
    0.3847    0.2225    0.0000 C   0  0  0  0  0  0  0  0  0  0  0  0
   -0.4809   -0.2781    0.0000 C   0  0  0  0  0  0  0  0  0  0  0  0
   -1.3475    0.2211    0.0000 C   0  0  0  0  0  0  0  0  0  0  0  0
   -1.3483    1.2213    0.0000 C   0  0  0  0  0  0  0  0  0  0  0  0
   -2.2145    1.7205    0.0000 O   0  0  0  0  0  0  0  0  0  0  0  0
   -3.0801    1.2197    0.0000 R   0  0  0  0  0  0  0  0  0  0  0  0
   -0.4825    1.7217    0.0000 C   0  0  0  0  0  0  0  0  0  0  0  0
   -0.4833    2.7219    0.0000 O   0  0  0  0  0  0  0  0  0  0  0  0
   -1.3497    3.2211    0.0000 R   0  0  0  0  0  0  0  0  0  0  0  0
    0.3839    1.2225    0.0000 C   0  0  0  0  0  0  0  0  0  0  0  0
    2.1183   -1.7761    0.0000 C   0  0  0  0  0  0  0  0  0  0  0  0
    2.1191   -2.7761    0.0000 R   0  0  0  0  0  0  0  0  0  0  0  0
    2.9839   -1.2753    0.0000 O   0  0  0  0  0  0  0  0  0  0  0  0
  1  2  1  0
  2  3  1  0
  2  4  1  0
  4  5  1  1
  5  6  1  0
  6  7  1  0
  7  8  2  0
  8  9  1  0
  9 10  1  0
 10 11  1  0
  9 12  2  0
 12 13  1  0
 13 14  1  0
 12 15  1  0
  4 16  1  0
 16 17  1  0
 16 18  2  0
 15  6  2  0
M  ISO  5   1   1   3   3  11   4  14   5  17   2
V    1 *
V    3 *
V   11 *
V   14 *
V   17 *
M  END
>  <symbol>  (267) 
Tyr_3OH

>  <m_Rgroups>  (267) 
[H],[OH],[H],[H],[H],None

>  <m_abbr>  (267) 
Tyr_3OH

>  <m_name>  (267) 
(2S)-2-amino-3-(3,4-dihydroxyphenyl)propanoic acid

>  <m_type>  (267) 
aa

>  <m_subtype>  (267) 
natural

>  <m_chem_types>  (267) 
1:backbone_n,2:backbone_c,3:backbone_n_mod,4:hydroxyl_phenolic,5:hydroxyl_phenolic

$$$$

     RDKit          2D

 16 16  0  0  0  0  0  0  0  0999 V2000
    0.2075   -2.5007    0.0000 R   0  0  0  0  0  0  0  0  0  0  0  0
    0.2111   -1.5007    0.0000 N   0  0  0  0  0  0  0  0  0  0  0  0
   -0.6531   -0.9977    0.0000 R   0  0  0  0  0  0  0  0  0  0  0  0
    1.0789   -1.0039    0.0000 C   0  0  0  0  0  0  0  0  0  0  0  0
    1.0825   -0.0039    0.0000 C   0  0  0  0  0  0  0  0  0  0  0  0
    0.2183    0.4991    0.0000 C   0  0  0  0  0  0  0  0  0  0  0  0
   -0.6495    0.0023    0.0000 C   0  0  0  0  0  0  0  0  0  0  0  0
   -1.5137    0.5055    0.0000 C   0  0  0  0  0  0  0  0  0  0  0  0
   -1.5101    1.5053    0.0000 C   0  0  0  0  0  0  0  0  0  0  0  0
   -2.3743    2.0085    0.0000 O   0  0  0  0  0  0  0  0  0  0  0  0
   -2.3707    3.0085    0.0000 C   0  0  0  0  0  0  0  0  0  0  0  0
   -0.6423    2.0023    0.0000 C   0  0  0  0  0  0  0  0  0  0  0  0
    0.2219    1.4991    0.0000 C   0  0  0  0  0  0  0  0  0  0  0  0
    1.9431   -1.5069    0.0000 C   0  0  0  0  0  0  0  0  0  0  0  0
    1.9395   -2.5069    0.0000 R   0  0  0  0  0  0  0  0  0  0  0  0
    2.8109   -1.0101    0.0000 O   0  0  0  0  0  0  0  0  0  0  0  0
  1  2  1  0
  2  3  1  0
  2  4  1  0
  4  5  1  1
  5  6  1  0
  6  7  1  0
  7  8  2  0
  8  9  1  0
  9 10  1  0
 10 11  1  0
  9 12  2  0
 12 13  1  0
  4 14  1  0
 14 15  1  0
 14 16  2  0
 13  6  2  0
M  ISO  3   1   1   3   3  15   2
V    1 *
V    3 *
V   15 *
M  END
>  <symbol>  (268) 
Tyr_Me

>  <m_Rgroups>  (268) 
[H],[OH],[H],None,None,None

>  <m_abbr>  (268) 
Tyr_Me

>  <m_name>  (268) 
(2S)-2-amino-3-(4-methoxyphenyl)propanoic acid

>  <m_type>  (268) 
aa

>  <m_subtype>  (268) 
natural

>  <m_chem_types>  (268) 
1:backbone_n,2:backbone_c,3:backbone_n_mod

$$$$

     RDKit          2D

 19 19  0  0  0  0  0  0  0  0999 V2000
    0.5816   -3.0284    0.0000 R   0  0  0  0  0  0  0  0  0  0  0  0
    0.5852   -2.0284    0.0000 N   0  0  0  0  0  0  0  0  0  0  0  0
   -0.2790   -1.5252    0.0000 R   0  0  0  0  0  0  0  0  0  0  0  0
    1.4530   -1.5314    0.0000 C   0  0  0  0  0  0  0  0  0  0  0  0
    1.4566   -0.5314    0.0000 C   0  0  0  0  0  0  0  0  0  0  0  0
    0.5926   -0.0284    0.0000 C   0  0  0  0  0  0  0  0  0  0  0  0
   -0.2754   -0.5254    0.0000 C   0  0  0  0  0  0  0  0  0  0  0  0
   -1.1396   -0.0222    0.0000 C   0  0  0  0  0  0  0  0  0  0  0  0
   -1.1360    0.9778    0.0000 C   0  0  0  0  0  0  0  0  0  0  0  0
   -2.0002    1.4808    0.0000 O   0  0  0  0  0  0  0  0  0  0  0  0
   -1.9966    2.4808    0.0000 P   0  0  0  0  0  0  0  0  0  0  0  0
   -0.9966    2.4772    0.0000 R   0  0  0  0  0  0  0  0  0  0  0  0
   -1.9930    3.4808    0.0000 O   0  0  0  0  0  0  0  0  0  0  0  0
   -2.9966    2.4844    0.0000 O   0  0  0  0  0  0  0  0  0  0  0  0
   -0.2682    1.4748    0.0000 C   0  0  0  0  0  0  0  0  0  0  0  0
    0.5960    0.9716    0.0000 C   0  0  0  0  0  0  0  0  0  0  0  0
    2.3172   -2.0346    0.0000 C   0  0  0  0  0  0  0  0  0  0  0  0
    2.3136   -3.0346    0.0000 R   0  0  0  0  0  0  0  0  0  0  0  0
    3.1850   -1.5376    0.0000 O   0  0  0  0  0  0  0  0  0  0  0  0
  1  2  1  0
  2  3  1  0
  2  4  1  0
  4  5  1  1
  5  6  1  0
  6  7  1  0
  7  8  2  0
  8  9  1  0
  9 10  1  0
 10 11  1  0
 11 12  1  0
 11 13  2  0
 11 14  1  0
  9 15  2  0
 15 16  1  0
  4 17  1  0
 17 18  1  0
 17 19  2  0
 16  6  2  0
M  ISO  4   1   1   3   3  12   4  18   2
V    1 *
V    3 *
V   12 *
V   18 *
M  END
>  <symbol>  (269) 
Tyr_PO3H2

>  <m_Rgroups>  (269) 
[H],[OH],[H],[OH],None,None

>  <m_abbr>  (269) 
Tyr_PO3H2

>  <m_name>  (269) 
(2S)-2-amino-3-[4-(phosphonooxy)phenyl]propanoic acid

>  <m_type>  (269) 
aa

>  <m_subtype>  (269) 
natural

>  <m_chem_types>  (269) 
1:backbone_n,2:backbone_c,3:backbone_n_mod,4:phosphate_p

$$$$

     RDKit          2D

 11 11  0  0  0  0  0  0  0  0999 V2000
   -0.5525   -1.6951    0.0000 R   0  0  0  0  0  0  0  0  0  0  0  0
   -0.3949   -0.7077    0.0000 N   0  0  0  0  0  0  0  0  0  0  0  0
   -1.1011    0.0003    0.0000 C   0  0  0  0  0  0  0  0  0  0  0  0
   -0.6459    0.8907    0.0000 C   0  0  0  0  0  0  0  0  0  0  0  0
   -1.0989    1.7823    0.0000 O   0  0  0  0  0  0  0  0  0  0  0  0
   -2.0973    1.8359    0.0000 R   0  0  0  0  0  0  0  0  0  0  0  0
    0.3415    0.7331    0.0000 C   0  0  0  0  0  0  0  0  0  0  0  0
    0.4967   -0.2547    0.0000 C   0  0  0  0  0  0  0  0  0  0  0  0
    1.3871   -0.7099    0.0000 C   0  0  0  0  0  0  0  0  0  0  0  0
    1.4385   -1.7085    0.0000 R   0  0  0  0  0  0  0  0  0  0  0  0
    2.2265   -0.1663    0.0000 O   0  0  0  0  0  0  0  0  0  0  0  0
  1  2  1  0
  2  3  1  0
  3  4  1  0
  4  5  1  0
  5  6  1  0
  4  7  1  0
  7  8  1  0
  8  9  1  1
  9 10  1  0
  9 11  2  0
  8  2  1  0
M  ISO  3   1   1   6   3  10   2
V    1 *
V    6 *
V   10 *
M  END
>  <symbol>  (270) 
xiHyp

>  <m_Rgroups>  (270) 
[H],[OH],[H],None,None,None

>  <m_abbr>  (270) 
xiHyp

>  <m_name>  (270) 
(2S)-4-hydroxypyrrolidine-2-carboxylic acid

>  <m_type>  (270) 
aa

>  <m_subtype>  (270) 
natural

>  <m_chem_types>  (270) 
1:backbone_n,2:backbone_c,3:hydroxyl

$$$$

     RDKit          2D

 11 10  0  0  0  0  0  0  0  0999 V2000
   -0.9413    1.7290    0.0000 R   0  0  0  0  0  0  0  0  0  0  0  0
   -0.9433    0.7292    0.0000 N   0  0  0  0  0  0  0  0  0  0  0  0
   -1.8103    0.2308    0.0000 R   0  0  0  0  0  0  0  0  0  0  0  0
   -0.0783    0.2274    0.0000 C   0  0  0  0  0  0  0  0  0  0  0  0
    0.7887    0.7256    0.0000 C   0  0  0  0  0  0  0  0  0  0  0  0
    1.6537    0.2240    0.0000 R   0  0  0  0  0  0  0  0  0  0  0  0
    0.7907    1.7256    0.0000 O   0  0  0  0  0  0  0  0  0  0  0  0
   -0.0803   -0.7726    0.0000 C   0  0  0  0  0  0  0  0  0  0  0  0
   -0.9473   -1.2708    0.0000 C   0  0  0  0  0  0  0  0  0  0  0  0
    0.7847   -1.2742    0.0000 O   0  0  0  0  0  0  0  0  0  0  0  0
    0.7827   -2.2742    0.0000 R   0  0  0  0  0  0  0  0  0  0  0  0
  1  2  1  0
  2  3  1  0
  2  4  1  0
  4  5  1  0
  5  6  1  0
  5  7  2  0
  4  8  1  6
  8  9  1  0
  8 10  1  0
 10 11  1  0
M  ISO  4   1   1   3   3   6   2  11   4
V    1 *
V    3 *
V    6 *
V   11 *
M  END
>  <symbol>  (271) 
xiThr

>  <m_Rgroups>  (271) 
[H],[OH],[H],[H],None,None

>  <m_abbr>  (271) 
xiThr

>  <m_name>  (271) 
(2S)-2-amino-3-hydroxybutanoic acid

>  <m_type>  (271) 
aa

>  <m_subtype>  (271) 
natural

>  <m_chem_types>  (271) 
1:backbone_n,2:backbone_c,3:backbone_n_mod,4:hydroxyl

$$$$

     RDKit          2D

 17 17  0  0  0  0  0  0  0  0999 V2000
   -0.9392   -1.5290    0.0000 R   0  0  0  0  0  0  0  0  0  0  0  0
    0.0262   -1.7896    0.0000 N   0  0  0  0  0  0  0  0  0  0  0  0
    0.2832   -2.7560    0.0000 R   0  0  0  0  0  0  0  0  0  0  0  0
    0.7346   -1.0838    0.0000 C   0  0  0  0  0  0  0  0  0  0  0  0
   -0.2310   -0.8232    0.0000 C   0  0  0  0  0  0  0  0  0  0  0  0
    0.9950   -0.1184    0.0000 C   0  0  0  0  0  0  0  0  0  0  0  0
    0.2892    0.5900    0.0000 C   0  0  0  0  0  0  0  0  0  0  0  0
   -0.6772    0.3330    0.0000 C   0  0  0  0  0  0  0  0  0  0  0  0
   -1.3830    1.0412    0.0000 C   0  0  0  0  0  0  0  0  0  0  0  0
   -1.1224    2.0066    0.0000 C   0  0  0  0  0  0  0  0  0  0  0  0
   -1.8282    2.7150    0.0000 O   0  0  0  0  0  0  0  0  0  0  0  0
   -1.5676    3.6804    0.0000 R   0  0  0  0  0  0  0  0  0  0  0  0
   -0.1560    2.2638    0.0000 C   0  0  0  0  0  0  0  0  0  0  0  0
    0.5498    1.5554    0.0000 C   0  0  0  0  0  0  0  0  0  0  0  0
    1.4404   -1.7922    0.0000 C   0  0  0  0  0  0  0  0  0  0  0  0
    1.1798   -2.7576    0.0000 R   0  0  0  0  0  0  0  0  0  0  0  0
    2.4068   -1.5350    0.0000 O   0  0  0  0  0  0  0  0  0  0  0  0
  1  2  1  0
  2  3  1  0
  2  4  1  0
  4  5  1  6
  4  6  1  0
  6  7  1  0
  7  8  1  0
  8  9  2  0
  9 10  1  0
 10 11  1  0
 11 12  1  0
 10 13  2  0
 13 14  1  0
  4 15  1  0
 15 16  1  0
 15 17  2  0
 14  7  2  0
M  ISO  4   1   1   3   3  12   4  16   2
V    1 *
V    3 *
V   12 *
V   16 *
M  END
>  <symbol>  (272) 
aMeTyr

>  <m_Rgroups>  (272) 
[H],[OH],[H],[H],None,None

>  <m_abbr>  (272) 
aMeTyr

>  <m_name>  (272) 
(2S)-2-amino-3-(4-hydroxyphenyl)-2-methylpropanoic acid

>  <m_type>  (272) 
aa

>  <m_subtype>  (272) 
natural

>  <m_chem_types>  (272) 
1:backbone_n,2:backbone_c,3:backbone_n_mod,4:hydroxyl_phenolic

$$$$

     RDKit          2D

 16 15  0  0  0  0  0  0  0  0999 V2000
   -1.9419    3.2538    0.0000 R   0  0  0  0  0  0  0  0  0  0  0  0
   -1.9439    2.2538    0.0000 N   0  0  0  0  0  0  0  0  0  0  0  0
   -2.8111    1.7556    0.0000 R   0  0  0  0  0  0  0  0  0  0  0  0
   -1.0789    1.7520    0.0000 C   0  0  0  0  0  0  0  0  0  0  0  0
   -1.0811    0.7520    0.0000 C   0  0  0  0  0  0  0  0  0  0  0  0
   -0.2161    0.2504    0.0000 C   0  0  0  0  0  0  0  0  0  0  0  0
   -0.2181   -0.7496    0.0000 C   0  0  0  0  0  0  0  0  0  0  0  0
    0.6469   -1.2514    0.0000 C   0  0  0  0  0  0  0  0  0  0  0  0
    0.6449   -2.2512    0.0000 C   0  0  0  0  0  0  0  0  0  0  0  0
    1.5099   -2.7530    0.0000 C   0  0  0  0  0  0  0  0  0  0  0  0
    2.3771   -2.2548    0.0000 O   0  0  0  0  0  0  0  0  0  0  0  0
    1.5079   -3.7530    0.0000 C   0  0  0  0  0  0  0  0  0  0  0  0
    2.3729   -4.2546    0.0000 C   0  0  0  0  0  0  0  0  0  0  0  0
   -0.2119    2.2504    0.0000 C   0  0  0  0  0  0  0  0  0  0  0  0
    0.6531    1.7486    0.0000 R   0  0  0  0  0  0  0  0  0  0  0  0
   -0.2099    3.2504    0.0000 O   0  0  0  0  0  0  0  0  0  0  0  0
  1  2  1  0
  2  3  1  0
  2  4  1  0
  4  5  1  6
  5  6  1  0
  6  7  1  0
  7  8  1  0
  8  9  1  0
  9 10  1  0
 10 11  2  0
 10 12  1  0
 12 13  1  0
  4 14  1  0
 14 15  1  0
 14 16  2  0
M  ISO  3   1   1   3   3  15   2
V    1 *
V    3 *
V   15 *
M  END
>  <symbol>  (273) 
Aoda

>  <m_Rgroups>  (273) 
[H],[OH],[H],None,None,None

>  <m_abbr>  (273) 
Aoda

>  <m_name>  (273) 
(2S)-2-amino-8-oxodecanoic acid

>  <m_type>  (273) 
aa

>  <m_subtype>  (273) 
natural

>  <m_chem_types>  (273) 
1:backbone_n,2:backbone_c,3:backbone_n_mod

$$$$

     RDKit          2D

 22 23  0  0  0  0  0  0  0  0999 V2000
    0.8927   -3.5260    0.0000 R   0  0  0  0  0  0  0  0  0  0  0  0
    0.8963   -2.5260    0.0000 N   0  0  0  0  0  0  0  0  0  0  0  0
    0.0321   -2.0228    0.0000 R   0  0  0  0  0  0  0  0  0  0  0  0
    1.7641   -2.0290    0.0000 C   0  0  0  0  0  0  0  0  0  0  0  0
    1.7677   -1.0290    0.0000 C   0  0  0  0  0  0  0  0  0  0  0  0
    0.9035   -0.5260    0.0000 C   0  0  0  0  0  0  0  0  0  0  0  0
    0.0357   -1.0230    0.0000 C   0  0  0  0  0  0  0  0  0  0  0  0
   -0.8285   -0.5198    0.0000 C   0  0  0  0  0  0  0  0  0  0  0  0
   -0.8251    0.4802    0.0000 C   0  0  0  0  0  0  0  0  0  0  0  0
   -1.6891    0.9832    0.0000 C   0  0  0  0  0  0  0  0  0  0  0  0
   -2.5569    0.4864    0.0000 O   0  0  0  0  0  0  0  0  0  0  0  0
   -1.6855    1.9832    0.0000 C   0  0  0  0  0  0  0  0  0  0  0  0
   -2.5497    2.4864    0.0000 C   0  0  0  0  0  0  0  0  0  0  0  0
   -2.5463    3.4864    0.0000 C   0  0  0  0  0  0  0  0  0  0  0  0
   -1.6783    3.9832    0.0000 C   0  0  0  0  0  0  0  0  0  0  0  0
   -0.8141    3.4800    0.0000 C   0  0  0  0  0  0  0  0  0  0  0  0
   -0.8177    2.4800    0.0000 C   0  0  0  0  0  0  0  0  0  0  0  0
    0.0429    0.9772    0.0000 C   0  0  0  0  0  0  0  0  0  0  0  0
    0.9071    0.4740    0.0000 C   0  0  0  0  0  0  0  0  0  0  0  0
    2.6283   -2.5322    0.0000 C   0  0  0  0  0  0  0  0  0  0  0  0
    2.6247   -3.5322    0.0000 R   0  0  0  0  0  0  0  0  0  0  0  0
    3.4961   -2.0352    0.0000 O   0  0  0  0  0  0  0  0  0  0  0  0
  1  2  1  0
  2  3  1  0
  2  4  1  0
  4  5  1  1
  5  6  1  0
  6  7  1  0
  7  8  2  0
  8  9  1  0
  9 10  1  0
 10 11  2  0
 10 12  1  0
 12 13  2  0
 13 14  1  0
 14 15  2  0
 15 16  1  0
 16 17  2  0
  9 18  2  0
 18 19  1  0
  4 20  1  0
 20 21  1  0
 20 22  2  0
 19  6  2  0
 17 12  1  0
M  ISO  3   1   1   3   3  21   2
V    1 *
V    3 *
V   21 *
M  END
>  <symbol>  (274) 
Bpa

>  <m_Rgroups>  (274) 
[H],[OH],[H],None,None,None

>  <m_abbr>  (274) 
Bpa

>  <m_name>  (274) 
(2S)-2-amino-3-(4-benzoylphenyl)propanoic acid

>  <m_type>  (274) 
aa

>  <m_subtype>  (274) 
natural

>  <m_chem_types>  (274) 
1:backbone_n,2:backbone_c,3:backbone_n_mod

$$$$

     RDKit          2D

 10  9  0  0  0  0  0  0  0  0999 V2000
   -1.0360    1.6020    0.0000 R   0  0  0  0  0  0  0  0  0  0  0  0
   -1.0380    0.6020    0.0000 N   0  0  0  0  0  0  0  0  0  0  0  0
   -1.9050    0.1038    0.0000 R   0  0  0  0  0  0  0  0  0  0  0  0
   -0.1730    0.1004    0.0000 C   0  0  0  0  0  0  0  0  0  0  0  0
   -0.1750   -0.8996    0.0000 C   0  0  0  0  0  0  0  0  0  0  0  0
    0.6900   -1.4014    0.0000 S   0  0  0  0  0  0  0  0  0  0  0  0
    0.6880   -2.4014    0.0000 C   0  0  0  0  0  0  0  0  0  0  0  0
    0.6940    0.5986    0.0000 C   0  0  0  0  0  0  0  0  0  0  0  0
    1.5590    0.0968    0.0000 R   0  0  0  0  0  0  0  0  0  0  0  0
    0.6960    1.5986    0.0000 O   0  0  0  0  0  0  0  0  0  0  0  0
  1  2  1  0
  2  3  1  0
  2  4  1  0
  4  5  1  6
  5  6  1  0
  6  7  1  0
  4  8  1  0
  8  9  1  0
  8 10  2  0
M  ISO  3   1   1   3   3   9   2
V    1 *
V    3 *
V    9 *
M  END
>  <symbol>  (275) 
Cys_Me

>  <m_Rgroups>  (275) 
[H],[OH],[H],None,None,None

>  <m_abbr>  (275) 
Cys_Me

>  <m_name>  (275) 
(2R)-2-amino-3-(methylsulfanyl)propanoic acid

>  <m_type>  (275) 
aa

>  <m_subtype>  (275) 
natural

>  <m_chem_types>  (275) 
1:backbone_n,2:backbone_c,3:backbone_n_mod

$$$$

     RDKit          2D

 20 21  0  0  0  0  0  0  0  0999 V2000
   -0.8752   -2.5469    0.0000 R   0  0  0  0  0  0  0  0  0  0  0  0
   -0.8716   -1.5469    0.0000 N   0  0  0  0  0  0  0  0  0  0  0  0
   -1.7358   -1.0437    0.0000 R   0  0  0  0  0  0  0  0  0  0  0  0
   -0.0038   -1.0499    0.0000 C   0  0  0  0  0  0  0  0  0  0  0  0
    0.8604   -1.5531    0.0000 C   0  0  0  0  0  0  0  0  0  0  0  0
    0.8568   -2.5531    0.0000 R   0  0  0  0  0  0  0  0  0  0  0  0
    1.7282   -1.0561    0.0000 O   0  0  0  0  0  0  0  0  0  0  0  0
   -0.0002   -0.0499    0.0000 C   0  0  0  0  0  0  0  0  0  0  0  0
   -0.8644    0.4531    0.0000 C   0  0  0  0  0  0  0  0  0  0  0  0
   -1.7322   -0.0439    0.0000 C   0  0  0  0  0  0  0  0  0  0  0  0
   -2.5964    0.4593    0.0000 C   0  0  0  0  0  0  0  0  0  0  0  0
   -2.5928    1.4593    0.0000 C   0  0  0  0  0  0  0  0  0  0  0  0
   -1.7250    1.9563    0.0000 C   0  0  0  0  0  0  0  0  0  0  0  0
   -0.8608    1.4531    0.0000 C   0  0  0  0  0  0  0  0  0  0  0  0
    0.8678    0.4469    0.0000 C   0  0  0  0  0  0  0  0  0  0  0  0
    0.8712    1.4469    0.0000 C   0  0  0  0  0  0  0  0  0  0  0  0
    1.7390    1.9439    0.0000 C   0  0  0  0  0  0  0  0  0  0  0  0
    2.6032    1.4407    0.0000 C   0  0  0  0  0  0  0  0  0  0  0  0
    2.5998    0.4407    0.0000 C   0  0  0  0  0  0  0  0  0  0  0  0
    1.7318   -0.0563    0.0000 C   0  0  0  0  0  0  0  0  0  0  0  0
  1  2  1  0
  2  3  1  0
  2  4  1  0
  4  5  1  0
  5  6  1  0
  5  7  2  0
  4  8  1  1
  8  9  1  0
  9 10  2  0
 10 11  1  0
 11 12  2  0
 12 13  1  0
 13 14  2  0
  8 15  1  0
 15 16  2  0
 16 17  1  0
 17 18  2  0
 18 19  1  0
 19 20  2  0
 14  9  1  0
 20 15  1  0
M  ISO  3   1   1   3   3   6   2
V    1 *
V    3 *
V    6 *
M  END
>  <symbol>  (276) 
Dip

>  <m_Rgroups>  (276) 
[H],[OH],[H],None,None,None

>  <m_abbr>  (276) 
Dip

>  <m_name>  (276) 
(2S)-2-amino-3,3-diphenylpropanoic acid

>  <m_type>  (276) 
aa

>  <m_subtype>  (276) 
natural

>  <m_chem_types>  (276) 
1:backbone_n,2:backbone_c,3:backbone_n_mod

$$$$

     RDKit          2D

 18 17  0  0  0  0  0  0  0  0999 V2000
   -2.2542    3.4766    0.0000 R   0  0  0  0  0  0  0  0  0  0  0  0
   -2.2562    2.4766    0.0000 N   0  0  0  0  0  0  0  0  0  0  0  0
   -3.1234    1.9784    0.0000 R   0  0  0  0  0  0  0  0  0  0  0  0
   -1.3912    1.9750    0.0000 C   0  0  0  0  0  0  0  0  0  0  0  0
   -1.3934    0.9750    0.0000 C   0  0  0  0  0  0  0  0  0  0  0  0
   -0.5284    0.4732    0.0000 C   0  0  0  0  0  0  0  0  0  0  0  0
   -0.5304   -0.5268    0.0000 C   0  0  0  0  0  0  0  0  0  0  0  0
    0.3346   -1.0284    0.0000 C   0  0  0  0  0  0  0  0  0  0  0  0
    0.3326   -2.0284    0.0000 N   0  0  0  0  0  0  0  0  0  0  0  0
    1.1976   -2.5302    0.0000 C   0  0  0  0  0  0  0  0  0  0  0  0
    1.1956   -3.5302    0.0000 N   0  0  0  0  0  0  0  0  0  0  0  0
    2.0606   -4.0318    0.0000 R   0  0  0  0  0  0  0  0  0  0  0  0
    2.0648   -2.0318    0.0000 N   0  0  0  0  0  0  0  0  0  0  0  0
    2.9298   -2.5336    0.0000 R   0  0  0  0  0  0  0  0  0  0  0  0
    2.0668   -1.0320    0.0000 R   0  0  0  0  0  0  0  0  0  0  0  0
   -0.5242    2.4732    0.0000 C   0  0  0  0  0  0  0  0  0  0  0  0
    0.3408    1.9714    0.0000 R   0  0  0  0  0  0  0  0  0  0  0  0
   -0.5222    3.4732    0.0000 O   0  0  0  0  0  0  0  0  0  0  0  0
  1  2  1  0
  2  3  1  0
  2  4  1  0
  4  5  1  6
  5  6  1  0
  6  7  1  0
  7  8  1  0
  8  9  1  0
  9 10  1  0
 10 11  1  0
 11 12  1  0
 10 13  1  0
 13 14  1  0
 13 15  1  0
  4 16  1  0
 16 17  1  0
 16 18  2  0
M  ISO  6   1   1   3   3  12   7  14   4  15   5  17   2
V    1 *
V    3 *
V   12 *
V   14 *
V   15 *
V   17 *
M  END
>  <symbol>  (277) 
hArg

>  <m_Rgroups>  (277) 
[H],[OH],[H],[H],[H],None

>  <m_abbr>  (277) 
hArg

>  <m_name>  (277) 
(2S)-2-amino-6-[(diaminomethyl)amino]hexanoic acid

>  <m_type>  (277) 
aa

>  <m_subtype>  (277) 
natural

>  <m_chem_types>  (277) 
1:backbone_n,2:backbone_c,3:backbone_n_mod,4:amine_primary,5:amine_secondary

$$$$

     RDKit          2D

 20 21  0  0  0  0  0  0  0  0999 V2000
    0.9481   -3.1621    0.0000 R   0  0  0  0  0  0  0  0  0  0  0  0
    0.9503   -2.1621    0.0000 N   0  0  0  0  0  0  0  0  0  0  0  0
    0.0855   -1.6601    0.0000 R   0  0  0  0  0  0  0  0  0  0  0  0
    1.8175   -1.6643    0.0000 C   0  0  0  0  0  0  0  0  0  0  0  0
    1.8197   -0.6645    0.0000 C   0  0  0  0  0  0  0  0  0  0  0  0
    0.9559   -0.1619    0.0000 C   0  0  0  0  0  0  0  0  0  0  0  0
    0.8531    0.8321    0.0000 C   0  0  0  0  0  0  0  0  0  0  0  0
   -0.1243    1.0437    0.0000 N   0  0  0  0  0  0  0  0  0  0  0  0
   -0.5283    1.9577    0.0000 C   0  0  0  0  0  0  0  0  0  0  0  0
   -1.5219    2.0655    0.0000 C   0  0  0  0  0  0  0  0  0  0  0  0
   -2.1131    1.2559    0.0000 C   0  0  0  0  0  0  0  0  0  0  0  0
   -3.1065    1.3649    0.0000 C   0  0  0  0  0  0  0  0  0  0  0  0
   -3.5127    2.2779    0.0000 C   0  0  0  0  0  0  0  0  0  0  0  0
   -2.9215    3.0875    0.0000 C   0  0  0  0  0  0  0  0  0  0  0  0
   -1.9281    2.9785    0.0000 C   0  0  0  0  0  0  0  0  0  0  0  0
   -0.6255    0.1785    0.0000 C   0  0  0  0  0  0  0  0  0  0  0  0
    0.0405   -0.5667    0.0000 N   0  0  0  0  0  0  0  0  0  0  0  0
    2.6823   -2.1661    0.0000 C   0  0  0  0  0  0  0  0  0  0  0  0
    2.6801   -3.1661    0.0000 R   0  0  0  0  0  0  0  0  0  0  0  0
    3.5495   -1.6681    0.0000 O   0  0  0  0  0  0  0  0  0  0  0  0
  1  2  1  0
  2  3  1  0
  2  4  1  0
  4  5  1  1
  5  6  1  0
  6  7  2  0
  7  8  1  0
  8  9  1  0
  9 10  1  0
 10 11  2  0
 11 12  1  0
 12 13  2  0
 13 14  1  0
 14 15  2  0
  8 16  1  0
 16 17  2  0
  4 18  1  0
 18 19  1  0
 18 20  2  0
 17  6  1  0
 15 10  1  0
M  ISO  3   1   1   3   3  19   2
V    1 *
V    3 *
V   19 *
M  END
>  <symbol>  (278) 
His_1Bn

>  <m_Rgroups>  (278) 
[H],[OH],[H],None,None,None

>  <m_abbr>  (278) 
His_1Bn

>  <m_name>  (278) 
(2S)-2-amino-3-(1-benzyl-1H-imidazol-4-yl)propanoic acid

>  <m_type>  (278) 
aa

>  <m_subtype>  (278) 
natural

>  <m_chem_types>  (278) 
1:backbone_n,2:backbone_c,3:backbone_n_mod

$$$$

     RDKit          2D

 14 14  0  0  0  0  0  0  0  0999 V2000
   -0.2862   -2.1979    0.0000 R   0  0  0  0  0  0  0  0  0  0  0  0
   -0.2822   -1.1981    0.0000 N   0  0  0  0  0  0  0  0  0  0  0  0
   -1.1462   -0.6947    0.0000 R   0  0  0  0  0  0  0  0  0  0  0  0
    0.5858   -0.7015    0.0000 C   0  0  0  0  0  0  0  0  0  0  0  0
    0.5898    0.2983    0.0000 C   0  0  0  0  0  0  0  0  0  0  0  0
   -0.2740    0.8017    0.0000 C   0  0  0  0  0  0  0  0  0  0  0  0
   -1.1894    0.3985    0.0000 C   0  0  0  0  0  0  0  0  0  0  0  0
   -1.8552    1.1443    0.0000 N   0  0  0  0  0  0  0  0  0  0  0  0
   -1.3522    2.0085    0.0000 C   0  0  0  0  0  0  0  0  0  0  0  0
   -0.3748    1.7965    0.0000 N   0  0  0  0  0  0  0  0  0  0  0  0
    0.3710    2.4629    0.0000 C   0  0  0  0  0  0  0  0  0  0  0  0
    1.4500   -1.2049    0.0000 C   0  0  0  0  0  0  0  0  0  0  0  0
    1.4460   -2.2049    0.0000 R   0  0  0  0  0  0  0  0  0  0  0  0
    2.3180   -0.7085    0.0000 O   0  0  0  0  0  0  0  0  0  0  0  0
  1  2  1  0
  2  3  1  0
  2  4  1  0
  4  5  1  1
  5  6  1  0
  6  7  2  0
  7  8  1  0
  8  9  2  0
  9 10  1  0
 10 11  1  0
  4 12  1  0
 12 13  1  0
 12 14  2  0
 10  6  1  0
M  ISO  3   1   1   3   3  13   2
V    1 *
V    3 *
V   13 *
M  END
>  <symbol>  (279) 
His_3Me

>  <m_Rgroups>  (279) 
[H],[OH],[H],None,None,None

>  <m_abbr>  (279) 
His_3Me

>  <m_name>  (279) 
(2S)-2-amino-3-(1-methyl-1H-imidazol-5-yl)propanoic acid

>  <m_type>  (279) 
aa

>  <m_subtype>  (279) 
natural

>  <m_chem_types>  (279) 
1:backbone_n,2:backbone_c,3:backbone_n_mod

$$$$

     RDKit          2D

 16 15  0  0  0  0  0  0  0  0999 V2000
   -1.4013    3.0028    0.0000 R   0  0  0  0  0  0  0  0  0  0  0  0
   -1.4032    2.0028    0.0000 N   0  0  0  0  0  0  0  0  0  0  0  0
   -2.2702    1.5046    0.0000 R   0  0  0  0  0  0  0  0  0  0  0  0
   -0.5382    1.5010    0.0000 C   0  0  0  0  0  0  0  0  0  0  0  0
   -0.5403    0.5010    0.0000 C   0  0  0  0  0  0  0  0  0  0  0  0
    0.3248   -0.0006    0.0000 C   0  0  0  0  0  0  0  0  0  0  0  0
    0.3227   -1.0006    0.0000 C   0  0  0  0  0  0  0  0  0  0  0  0
    1.1878   -1.5024    0.0000 C   0  0  0  0  0  0  0  0  0  0  0  0
    1.1857   -2.5022    0.0000 N   0  0  0  0  0  0  0  0  0  0  0  0
    2.0507   -3.0040    0.0000 R   0  0  0  0  0  0  0  0  0  0  0  0
    0.3187   -3.0006    0.0000 R   0  0  0  0  0  0  0  0  0  0  0  0
   -0.5443   -1.4988    0.0000 O   0  0  0  0  0  0  0  0  0  0  0  0
   -0.5463   -2.4988    0.0000 R   0  0  0  0  0  0  0  0  0  0  0  0
    0.3287    1.9994    0.0000 C   0  0  0  0  0  0  0  0  0  0  0  0
    1.1937    1.4976    0.0000 R   0  0  0  0  0  0  0  0  0  0  0  0
    0.3307    2.9994    0.0000 O   0  0  0  0  0  0  0  0  0  0  0  0
  1  2  1  0
  2  3  1  0
  2  4  1  0
  4  5  1  6
  5  6  1  0
  6  7  1  0
  7  8  1  0
  8  9  1  0
  9 10  1  0
  9 11  1  0
  7 12  1  0
 12 13  1  0
  4 14  1  0
 14 15  1  0
 14 16  2  0
M  ISO  6   1   1   3   3  10   4  11   6  13   5  15   2
V    1 *
V    3 *
V   10 *
V   11 *
V   13 *
V   15 *
M  END
>  <symbol>  (280) 
Hyl_5xi

>  <m_Rgroups>  (280) 
[H],[OH],[H],[H],[H],[H]

>  <m_abbr>  (280) 
Hyl_5xi

>  <m_name>  (280) 
(2S)-2,6-diamino-5-hydroxyhexanoic acid

>  <m_type>  (280) 
aa

>  <m_subtype>  (280) 
natural

>  <m_chem_types>  (280) 
1:backbone_n,2:backbone_c,3:backbone_n_mod,4:amine_primary,5:hydroxyl,6:amine_secondary

$$$$

     RDKit          2D

 20 21  0  0  0  0  0  0  0  0999 V2000
    0.9418   -3.0033    0.0000 R   0  0  0  0  0  0  0  0  0  0  0  0
    0.9454   -2.0033    0.0000 N   0  0  0  0  0  0  0  0  0  0  0  0
    0.0812   -1.5003    0.0000 R   0  0  0  0  0  0  0  0  0  0  0  0
    1.8132   -1.5065    0.0000 C   0  0  0  0  0  0  0  0  0  0  0  0
    1.8168   -0.5065    0.0000 C   0  0  0  0  0  0  0  0  0  0  0  0
    0.9526   -0.0035    0.0000 C   0  0  0  0  0  0  0  0  0  0  0  0
    0.0848   -0.5003    0.0000 C   0  0  0  0  0  0  0  0  0  0  0  0
   -0.7794    0.0029    0.0000 C   0  0  0  0  0  0  0  0  0  0  0  0
   -0.7758    1.0027    0.0000 C   0  0  0  0  0  0  0  0  0  0  0  0
   -1.6400    1.5059    0.0000 C   0  0  0  0  0  0  0  0  0  0  0  0
   -2.5078    1.0089    0.0000 C   0  0  0  0  0  0  0  0  0  0  0  0
   -3.3720    1.5121    0.0000 C   0  0  0  0  0  0  0  0  0  0  0  0
   -3.3684    2.5121    0.0000 C   0  0  0  0  0  0  0  0  0  0  0  0
   -2.5006    3.0089    0.0000 C   0  0  0  0  0  0  0  0  0  0  0  0
   -1.6364    2.5057    0.0000 C   0  0  0  0  0  0  0  0  0  0  0  0
    0.0920    1.4997    0.0000 C   0  0  0  0  0  0  0  0  0  0  0  0
    0.9562    0.9965    0.0000 C   0  0  0  0  0  0  0  0  0  0  0  0
    2.6774   -2.0095    0.0000 C   0  0  0  0  0  0  0  0  0  0  0  0
    2.6738   -3.0095    0.0000 R   0  0  0  0  0  0  0  0  0  0  0  0
    3.5452   -1.5127    0.0000 O   0  0  0  0  0  0  0  0  0  0  0  0
  1  2  1  0
  2  3  1  0
  2  4  1  0
  4  5  1  1
  5  6  1  0
  6  7  1  0
  7  8  2  0
  8  9  1  0
  9 10  1  0
 10 11  2  0
 11 12  1  0
 12 13  2  0
 13 14  1  0
 14 15  2  0
  9 16  2  0
 16 17  1  0
  4 18  1  0
 18 19  1  0
 18 20  2  0
 17  6  2  0
 15 10  1  0
M  ISO  3   1   1   3   3  19   2
V    1 *
V    3 *
V   19 *
M  END
>  <symbol>  (281) 
Bip

>  <m_Rgroups>  (281) 
[H],[OH],[H],None,None,None

>  <m_abbr>  (281) 
Bip

>  <m_name>  (281) 
(2S)-2-amino-3-{[1,1'-biphenyl]-4-yl}propanoic acid

>  <m_type>  (281) 
aa

>  <m_subtype>  (281) 
natural

>  <m_chem_types>  (281) 
1:backbone_n,2:backbone_c,3:backbone_n_mod

$$$$

     RDKit          2D

 20 21  0  0  0  0  0  0  0  0999 V2000
   -0.8752   -2.5469    0.0000 R   0  0  0  0  0  0  0  0  0  0  0  0
   -0.8716   -1.5469    0.0000 N   0  0  0  0  0  0  0  0  0  0  0  0
   -1.7358   -1.0437    0.0000 R   0  0  0  0  0  0  0  0  0  0  0  0
   -0.0038   -1.0499    0.0000 C   0  0  0  0  0  0  0  0  0  0  0  0
    0.8604   -1.5531    0.0000 C   0  0  0  0  0  0  0  0  0  0  0  0
    0.8568   -2.5531    0.0000 R   0  0  0  0  0  0  0  0  0  0  0  0
    1.7282   -1.0561    0.0000 O   0  0  0  0  0  0  0  0  0  0  0  0
   -0.0002   -0.0499    0.0000 C   0  0  0  0  0  0  0  0  0  0  0  0
   -0.8644    0.4531    0.0000 C   0  0  0  0  0  0  0  0  0  0  0  0
   -1.7322   -0.0439    0.0000 C   0  0  0  0  0  0  0  0  0  0  0  0
   -2.5964    0.4593    0.0000 C   0  0  0  0  0  0  0  0  0  0  0  0
   -2.5928    1.4593    0.0000 C   0  0  0  0  0  0  0  0  0  0  0  0
   -1.7250    1.9563    0.0000 C   0  0  0  0  0  0  0  0  0  0  0  0
   -0.8608    1.4531    0.0000 C   0  0  0  0  0  0  0  0  0  0  0  0
    0.8678    0.4469    0.0000 C   0  0  0  0  0  0  0  0  0  0  0  0
    0.8712    1.4469    0.0000 C   0  0  0  0  0  0  0  0  0  0  0  0
    1.7390    1.9439    0.0000 C   0  0  0  0  0  0  0  0  0  0  0  0
    2.6032    1.4407    0.0000 C   0  0  0  0  0  0  0  0  0  0  0  0
    2.5998    0.4407    0.0000 C   0  0  0  0  0  0  0  0  0  0  0  0
    1.7318   -0.0563    0.0000 C   0  0  0  0  0  0  0  0  0  0  0  0
  1  2  1  0
  2  3  1  0
  2  4  1  0
  4  5  1  0
  5  6  1  0
  5  7  2  0
  4  8  1  6
  8  9  1  0
  9 10  2  0
 10 11  1  0
 11 12  2  0
 12 13  1  0
 13 14  2  0
  8 15  1  0
 15 16  2  0
 16 17  1  0
 17 18  2  0
 18 19  1  0
 19 20  2  0
 14  9  1  0
 20 15  1  0
M  ISO  3   1   1   3   3   6   2
V    1 *
V    3 *
V    6 *
M  END
>  <symbol>  (282) 
D_Dip

>  <m_Rgroups>  (282) 
[H],[OH],[H],None,None,None

>  <m_abbr>  (282) 
D_Dip

>  <m_name>  (282) 
(2R)-2-amino-3,3-diphenylpropanoic acid

>  <m_type>  (282) 
aa

>  <m_subtype>  (282) 
natural

>  <m_chem_types>  (282) 
1:backbone_n,2:backbone_c,3:backbone_n_mod

$$$$

     RDKit          2D

 21 20  0  0  0  0  0  0  0  0999 V2000
    0.6927   -4.0728    0.0000 R   0  0  0  0  0  0  0  0  0  0  0  0
    0.6947   -3.0728    0.0000 N   0  0  0  0  0  0  0  0  0  0  0  0
   -0.1703   -2.5710    0.0000 R   0  0  0  0  0  0  0  0  0  0  0  0
    1.5619   -2.5744    0.0000 C   0  0  0  0  0  0  0  0  0  0  0  0
    1.5639   -1.5744    0.0000 C   0  0  0  0  0  0  0  0  0  0  0  0
    0.6989   -1.0728    0.0000 C   0  0  0  0  0  0  0  0  0  0  0  0
    0.7009   -0.0728    0.0000 C   0  0  0  0  0  0  0  0  0  0  0  0
   -0.1641    0.4290    0.0000 C   0  0  0  0  0  0  0  0  0  0  0  0
   -0.1621    1.4288    0.0000 N   0  0  0  0  0  0  0  0  0  0  0  0
    0.7049    1.9272    0.0000 R   0  0  0  0  0  0  0  0  0  0  0  0
   -1.0271    1.9306    0.0000 C   0  0  0  0  0  0  0  0  0  0  0  0
   -1.8941    1.4324    0.0000 N   0  0  0  0  0  0  0  0  0  0  0  0
   -2.7591    1.9340    0.0000 C   0  0  0  0  0  0  0  0  0  0  0  0
   -3.6263    1.4358    0.0000 C   0  0  0  0  0  0  0  0  0  0  0  0
   -1.0251    2.9306    0.0000 N   0  0  0  0  0  0  0  0  0  0  0  0
   -0.1581    3.4288    0.0000 R   0  0  0  0  0  0  0  0  0  0  0  0
   -1.8901    3.4322    0.0000 C   0  0  0  0  0  0  0  0  0  0  0  0
   -1.8881    4.4322    0.0000 C   0  0  0  0  0  0  0  0  0  0  0  0
    2.4269   -3.0762    0.0000 C   0  0  0  0  0  0  0  0  0  0  0  0
    2.4249   -4.0762    0.0000 R   0  0  0  0  0  0  0  0  0  0  0  0
    3.2939   -2.5780    0.0000 O   0  0  0  0  0  0  0  0  0  0  0  0
  1  2  1  0
  2  3  1  0
  2  4  1  0
  4  5  1  6
  5  6  1  0
  6  7  1  0
  7  8  1  0
  8  9  1  0
  9 10  1  0
  9 11  1  0
 11 12  2  3
 12 13  1  0
 13 14  1  0
 11 15  1  0
 15 16  1  0
 15 17  1  0
 17 18  1  0
  4 19  1  0
 19 20  1  0
 19 21  2  0
M  ISO  5   1   1   3   3  10   4  16   5  20   2
V    1 *
V    3 *
V   10 *
V   16 *
V   20 *
M  END
>  <symbol>  (283) 
D_hArg_Et2

>  <m_Rgroups>  (283) 
[H],[OH],[H],[H],[H],None

>  <m_abbr>  (283) 
D_hArg_Et2

>  <m_name>  (283) 
(2R)-2-amino-6-{[bis(ethylamino)methylidene]amino}hexanoic acid

>  <m_type>  (283) 
aa

>  <m_subtype>  (283) 
natural

>  <m_chem_types>  (283) 
1:backbone_n,2:backbone_c,3:backbone_n_mod,4:guanidinium,5:guanidinium

$$$$

     RDKit          2D

 12 11  0  0  0  0  0  0  0  0999 V2000
   -1.1505    2.0855    0.0000 R   0  0  0  0  0  0  0  0  0  0  0  0
   -1.1525    1.0857    0.0000 N   0  0  0  0  0  0  0  0  0  0  0  0
   -2.0195    0.5873    0.0000 R   0  0  0  0  0  0  0  0  0  0  0  0
   -0.2875    0.5839    0.0000 C   0  0  0  0  0  0  0  0  0  0  0  0
   -0.2895   -0.4161    0.0000 C   0  0  0  0  0  0  0  0  0  0  0  0
    0.5755   -0.9177    0.0000 C   0  0  0  0  0  0  0  0  0  0  0  0
    0.5735   -1.9177    0.0000 S   0  0  0  0  0  0  0  0  0  0  0  0
    1.4385   -2.4195    0.0000 C   0  0  0  0  0  0  0  0  0  0  0  0
   -0.2935   -2.4161    0.0000 O   0  0  0  0  0  0  0  0  0  0  0  0
    0.5795    1.0821    0.0000 C   0  0  0  0  0  0  0  0  0  0  0  0
    1.4445    0.5805    0.0000 R   0  0  0  0  0  0  0  0  0  0  0  0
    0.5815    2.0821    0.0000 O   0  0  0  0  0  0  0  0  0  0  0  0
  1  2  1  0
  2  3  1  0
  2  4  1  0
  4  5  1  1
  5  6  1  0
  6  7  1  0
  7  8  1  6
  7  9  1  0
  4 10  1  0
 10 11  1  0
 10 12  2  0
M  CHG  2   7   1   9  -1
M  ISO  3   1   1   3   3  11   2
V    1 *
V    3 *
V   11 *
M  END
>  <symbol>  (284) 
D_Met_S_O

>  <m_Rgroups>  (284) 
[H],[OH],[H],None,None,None

>  <m_abbr>  (284) 
D_Met_S_O

>  <m_name>  (284) 
(2R)-2-amino-4-[(S)-methanesulfinyl]butanoic acid

>  <m_type>  (284) 
aa

>  <m_subtype>  (284) 
natural

>  <m_chem_types>  (284) 
1:backbone_n,2:backbone_c,3:backbone_n_mod

$$$$

     RDKit          2D

 20 21  0  0  0  0  0  0  0  0999 V2000
    0.9481   -3.1621    0.0000 R   0  0  0  0  0  0  0  0  0  0  0  0
    0.9503   -2.1621    0.0000 N   0  0  0  0  0  0  0  0  0  0  0  0
    0.0855   -1.6601    0.0000 R   0  0  0  0  0  0  0  0  0  0  0  0
    1.8175   -1.6643    0.0000 C   0  0  0  0  0  0  0  0  0  0  0  0
    1.8197   -0.6645    0.0000 C   0  0  0  0  0  0  0  0  0  0  0  0
    0.9559   -0.1619    0.0000 C   0  0  0  0  0  0  0  0  0  0  0  0
    0.8531    0.8321    0.0000 C   0  0  0  0  0  0  0  0  0  0  0  0
   -0.1243    1.0437    0.0000 N   0  0  0  0  0  0  0  0  0  0  0  0
   -0.5283    1.9577    0.0000 C   0  0  0  0  0  0  0  0  0  0  0  0
   -1.5219    2.0655    0.0000 C   0  0  0  0  0  0  0  0  0  0  0  0
   -2.1131    1.2559    0.0000 C   0  0  0  0  0  0  0  0  0  0  0  0
   -3.1065    1.3649    0.0000 C   0  0  0  0  0  0  0  0  0  0  0  0
   -3.5127    2.2779    0.0000 C   0  0  0  0  0  0  0  0  0  0  0  0
   -2.9215    3.0875    0.0000 C   0  0  0  0  0  0  0  0  0  0  0  0
   -1.9281    2.9785    0.0000 C   0  0  0  0  0  0  0  0  0  0  0  0
   -0.6255    0.1785    0.0000 C   0  0  0  0  0  0  0  0  0  0  0  0
    0.0405   -0.5667    0.0000 N   0  0  0  0  0  0  0  0  0  0  0  0
    2.6823   -2.1661    0.0000 C   0  0  0  0  0  0  0  0  0  0  0  0
    2.6801   -3.1661    0.0000 R   0  0  0  0  0  0  0  0  0  0  0  0
    3.5495   -1.6681    0.0000 O   0  0  0  0  0  0  0  0  0  0  0  0
  1  2  1  0
  2  3  1  0
  2  4  1  0
  4  5  1  6
  5  6  1  0
  6  7  2  0
  7  8  1  0
  8  9  1  0
  9 10  1  0
 10 11  2  0
 11 12  1  0
 12 13  2  0
 13 14  1  0
 14 15  2  0
  8 16  1  0
 16 17  2  0
  4 18  1  0
 18 19  1  0
 18 20  2  0
 17  6  1  0
 15 10  1  0
M  ISO  3   1   1   3   3  19   2
V    1 *
V    3 *
V   19 *
M  END
>  <symbol>  (285) 
D_His_1Bn

>  <m_Rgroups>  (285) 
[H],[OH],[H],None,None,None

>  <m_abbr>  (285) 
D_His_1Bn

>  <m_name>  (285) 
(2R)-2-amino-3-(1-benzyl-1H-imidazol-4-yl)propanoic acid

>  <m_type>  (285) 
aa

>  <m_subtype>  (285) 
natural

>  <m_chem_types>  (285) 
1:backbone_n,2:backbone_c,3:backbone_n_mod

$$$$

     RDKit          2D

 15 15  0  0  0  0  0  0  0  0999 V2000
   -0.9144   -2.6033    0.0000 R   0  0  0  0  0  0  0  0  0  0  0  0
   -0.9180   -1.6033    0.0000 N   0  0  0  0  0  0  0  0  0  0  0  0
   -1.7858   -1.1063    0.0000 R   0  0  0  0  0  0  0  0  0  0  0  0
   -0.0538   -1.1001    0.0000 C   0  0  0  0  0  0  0  0  0  0  0  0
    0.8140   -1.5971    0.0000 C   0  0  0  0  0  0  0  0  0  0  0  0
    0.8176   -2.5969    0.0000 R   0  0  0  0  0  0  0  0  0  0  0  0
    1.6782   -1.0939    0.0000 O   0  0  0  0  0  0  0  0  0  0  0  0
   -0.0574   -0.1003    0.0000 C   0  0  0  0  0  0  0  0  0  0  0  0
   -0.9252    0.3967    0.0000 C   0  0  0  0  0  0  0  0  0  0  0  0
   -0.9288    1.3967    0.0000 C   0  0  0  0  0  0  0  0  0  0  0  0
   -0.0646    1.8999    0.0000 C   0  0  0  0  0  0  0  0  0  0  0  0
   -0.0682    2.8997    0.0000 O   0  0  0  0  0  0  0  0  0  0  0  0
    0.7960    3.4029    0.0000 R   0  0  0  0  0  0  0  0  0  0  0  0
    0.8032    1.4029    0.0000 C   0  0  0  0  0  0  0  0  0  0  0  0
    0.8068    0.4029    0.0000 C   0  0  0  0  0  0  0  0  0  0  0  0
  1  2  1  0
  2  3  1  0
  4  2  1  6
  4  5  1  0
  5  6  1  0
  5  7  2  0
  4  8  1  0
  8  9  1  0
  9 10  2  0
 10 11  1  0
 11 12  1  0
 12 13  1  0
 11 14  2  0
 14 15  1  0
 15  8  2  0
M  ISO  4   1   1   3   3   6   2  13   4
V    1 *
V    3 *
V    6 *
V   13 *
M  END
>  <symbol>  (286) 
D_nTyr

>  <m_Rgroups>  (286) 
[H],[OH],[H],[H],None,None

>  <m_abbr>  (286) 
D_nTyr

>  <m_name>  (286) 
(2R)-2-amino-2-(4-hydroxyphenyl)acetic acid

>  <m_type>  (286) 
aa

>  <m_subtype>  (286) 
natural

>  <m_chem_types>  (286) 
1:backbone_n,2:backbone_c,3:backbone_n_mod,4:hydroxyl_phenolic

$$$$

     RDKit          2D

 21 21  0  0  0  0  0  0  0  0999 V2000
    0.9367   -3.2652    0.0000 R   0  0  0  0  0  0  0  0  0  0  0  0
    0.9403   -2.2652    0.0000 N   0  0  0  0  0  0  0  0  0  0  0  0
    0.0761   -1.7622    0.0000 R   0  0  0  0  0  0  0  0  0  0  0  0
    1.8081   -1.7684    0.0000 C   0  0  0  0  0  0  0  0  0  0  0  0
    1.8117   -0.7684    0.0000 C   0  0  0  0  0  0  0  0  0  0  0  0
    0.9477   -0.2652    0.0000 C   0  0  0  0  0  0  0  0  0  0  0  0
    0.0797   -0.7622    0.0000 C   0  0  0  0  0  0  0  0  0  0  0  0
   -0.7843   -0.2590    0.0000 C   0  0  0  0  0  0  0  0  0  0  0  0
   -0.7809    0.7410    0.0000 C   0  0  0  0  0  0  0  0  0  0  0  0
   -1.6451    1.2440    0.0000 N   0  0  0  0  0  0  0  0  0  0  0  0
   -2.5129    0.7472    0.0000 R   0  0  0  0  0  0  0  0  0  0  0  0
   -1.6415    2.2440    0.0000 C   0  0  0  0  0  0  0  0  0  0  0  0
   -0.7737    2.7408    0.0000 O   0  0  0  0  0  0  0  0  0  0  0  0
   -2.5057    2.7470    0.0000 N   0  0  0  0  0  0  0  0  0  0  0  0
   -2.5021    3.7470    0.0000 R   0  0  0  0  0  0  0  0  0  0  0  0
   -3.3735    2.2502    0.0000 R   0  0  0  0  0  0  0  0  0  0  0  0
    0.0869    1.2378    0.0000 C   0  0  0  0  0  0  0  0  0  0  0  0
    0.9511    0.7346    0.0000 C   0  0  0  0  0  0  0  0  0  0  0  0
    2.6723   -2.2714    0.0000 C   0  0  0  0  0  0  0  0  0  0  0  0
    2.6687   -3.2714    0.0000 R   0  0  0  0  0  0  0  0  0  0  0  0
    3.5401   -1.7746    0.0000 O   0  0  0  0  0  0  0  0  0  0  0  0
  1  2  1  0
  2  3  1  0
  2  4  1  0
  4  5  1  6
  5  6  1  0
  6  7  1  0
  7  8  2  0
  8  9  1  0
  9 10  1  0
 10 11  1  0
 10 12  1  0
 12 13  2  0
 12 14  1  0
 14 15  1  0
 14 16  1  0
  9 17  2  0
 17 18  1  0
  4 19  1  0
 19 20  1  0
 19 21  2  0
 18  6  2  0
M  ISO  6   1   1   3   3  11   5  15   4  16   6  20   2
V    1 *
V    3 *
V   11 *
V   15 *
V   16 *
V   20 *
M  END
>  <symbol>  (287) 
D_Phe_4ureido

>  <m_Rgroups>  (287) 
[H],[OH],[H],[H],[H],[H]

>  <m_abbr>  (287) 
D_Phe_4ureido

>  <m_name>  (287) 
(2R)-2-amino-3-[4-(carbamoylamino)phenyl]propanoic acid

>  <m_type>  (287) 
aa

>  <m_subtype>  (287) 
natural

>  <m_chem_types>  (287) 
1:backbone_n,2:backbone_c,3:backbone_n_mod,4:amine_primary,5:amide_nh,6:amine_secondary

$$$$

     RDKit          2D

  8  7  0  0  0  0  0  0  0  0999 V2000
   -0.8652    1.1256    0.0000 R   0  0  0  0  0  0  0  0  0  0  0  0
   -0.8660    0.1256    0.0000 N   0  0  0  0  0  0  0  0  0  0  0  0
   -1.7322   -0.3736    0.0000 C   0  0  0  0  0  0  0  0  0  0  0  0
   -0.0002   -0.3750    0.0000 C   0  0  0  0  0  0  0  0  0  0  0  0
   -0.0010   -1.3750    0.0000 C   0  0  0  0  0  0  0  0  0  0  0  0
    0.8660    0.1244    0.0000 C   0  0  0  0  0  0  0  0  0  0  0  0
    1.7318   -0.3764    0.0000 R   0  0  0  0  0  0  0  0  0  0  0  0
    0.8668    1.1244    0.0000 O   0  0  0  0  0  0  0  0  0  0  0  0
  1  2  1  0
  2  3  1  0
  2  4  1  0
  4  5  1  6
  4  6  1  0
  6  7  1  0
  6  8  2  0
M  ISO  2   1   1   7   2
V    1 *
V    7 *
M  END
>  <symbol>  (288) 
meA

>  <m_Rgroups>  (288) 
[H],[OH],None,None,None,None

>  <m_abbr>  (288) 
meA

>  <m_name>  (288) 
N-Methyl-Alanine

>  <m_type>  (288) 
aa

>  <m_subtype>  (288) 
natural

>  <m_chem_types>  (288) 
1:backbone_n,2:backbone_c

$$$$

     RDKit          2D

  7  6  0  0  0  0  0  0  0  0999 V2000
   -0.8653    0.9292    0.0000 R   0  0  0  0  0  0  0  0  0  0  0  0
   -0.8661   -0.0708    0.0000 N   0  0  0  0  0  0  0  0  0  0  0  0
   -1.7325   -0.5700    0.0000 C   0  0  0  0  0  0  0  0  0  0  0  0
   -0.0005   -0.5714    0.0000 C   0  0  0  0  0  0  0  0  0  0  0  0
    0.8659   -0.0722    0.0000 C   0  0  0  0  0  0  0  0  0  0  0  0
    1.7315   -0.5728    0.0000 R   0  0  0  0  0  0  0  0  0  0  0  0
    0.8667    0.9278    0.0000 O   0  0  0  0  0  0  0  0  0  0  0  0
  1  2  1  0
  2  3  1  0
  2  4  1  0
  4  5  1  0
  5  6  1  0
  5  7  2  0
M  ISO  2   1   1   6   2
V    1 *
V    6 *
M  END
>  <symbol>  (289) 
meG

>  <m_Rgroups>  (289) 
[H],[OH],None,None,None,None

>  <m_abbr>  (289) 
meG

>  <m_name>  (289) 
N-Methyl-Glycine

>  <m_type>  (289) 
aa

>  <m_subtype>  (289) 
natural

>  <m_chem_types>  (289) 
1:backbone_n,2:backbone_c

$$$$

     RDKit          2D

 11 10  0  0  0  0  0  0  0  0999 V2000
   -2.0465    0.1859    0.0000 R   0  0  0  0  0  0  0  0  0  0  0  0
   -1.1795    0.6841    0.0000 N   0  0  0  0  0  0  0  0  0  0  0  0
   -1.1775    1.6841    0.0000 C   0  0  0  0  0  0  0  0  0  0  0  0
   -0.3145    0.1825    0.0000 C   0  0  0  0  0  0  0  0  0  0  0  0
   -0.3165   -0.8175    0.0000 C   0  0  0  0  0  0  0  0  0  0  0  0
    0.5485   -1.3193    0.0000 C   0  0  0  0  0  0  0  0  0  0  0  0
    0.5465   -2.3193    0.0000 C   0  0  0  0  0  0  0  0  0  0  0  0
    1.4155   -0.8209    0.0000 C   0  0  0  0  0  0  0  0  0  0  0  0
    0.5525    0.6807    0.0000 C   0  0  0  0  0  0  0  0  0  0  0  0
    1.4175    0.1789    0.0000 R   0  0  0  0  0  0  0  0  0  0  0  0
    0.5545    1.6807    0.0000 O   0  0  0  0  0  0  0  0  0  0  0  0
  1  2  1  0
  2  3  1  0
  2  4  1  0
  4  5  1  6
  5  6  1  0
  6  7  1  0
  6  8  1  0
  4  9  1  0
  9 10  1  0
  9 11  2  0
M  ISO  2   1   1  10   2
V    1 *
V   10 *
M  END
>  <symbol>  (290) 
meL

>  <m_Rgroups>  (290) 
[H],[OH],None,None,None,None

>  <m_abbr>  (290) 
meL

>  <m_name>  (290) 
N-Methyl-Leucine

>  <m_type>  (290) 
aa

>  <m_subtype>  (290) 
natural

>  <m_chem_types>  (290) 
1:backbone_n,2:backbone_c

$$$$

     RDKit          2D

 11 10  0  0  0  0  0  0  0  0999 V2000
   -1.8103    0.2308    0.0000 R   0  0  0  0  0  0  0  0  0  0  0  0
   -0.9433    0.7292    0.0000 N   0  0  0  0  0  0  0  0  0  0  0  0
   -0.9413    1.7290    0.0000 C   0  0  0  0  0  0  0  0  0  0  0  0
   -0.0783    0.2274    0.0000 C   0  0  0  0  0  0  0  0  0  0  0  0
    0.7887    0.7256    0.0000 C   0  0  0  0  0  0  0  0  0  0  0  0
    1.6537    0.2240    0.0000 R   0  0  0  0  0  0  0  0  0  0  0  0
    0.7907    1.7256    0.0000 O   0  0  0  0  0  0  0  0  0  0  0  0
   -0.0803   -0.7726    0.0000 C   0  0  0  0  0  0  0  0  0  0  0  0
   -0.9473   -1.2708    0.0000 C   0  0  0  0  0  0  0  0  0  0  0  0
    0.7847   -1.2742    0.0000 C   0  0  0  0  0  0  0  0  0  0  0  0
    0.7827   -2.2742    0.0000 C   0  0  0  0  0  0  0  0  0  0  0  0
  1  2  1  0
  2  3  1  0
  4  2  1  1
  4  5  1  0
  5  6  1  0
  5  7  2  0
  4  8  1  0
  8  9  1  6
  8 10  1  0
 10 11  1  0
M  ISO  2   1   1   6   2
V    1 *
V    6 *
M  END
>  <symbol>  (291) 
meI

>  <m_Rgroups>  (291) 
[H],[OH],None,None,None,None

>  <m_abbr>  (291) 
meI

>  <m_name>  (291) 
N-Methyl-Isoleucine

>  <m_type>  (291) 
aa

>  <m_subtype>  (291) 
natural

>  <m_chem_types>  (291) 
1:backbone_n,2:backbone_c

$$$$

     RDKit          2D

 10  9  0  0  0  0  0  0  0  0999 V2000
   -1.7320    0.0034    0.0000 R   0  0  0  0  0  0  0  0  0  0  0  0
   -0.8650    0.5018    0.0000 N   0  0  0  0  0  0  0  0  0  0  0  0
   -0.8630    1.5016    0.0000 C   0  0  0  0  0  0  0  0  0  0  0  0
   -0.0000   -0.0000    0.0000 C   0  0  0  0  0  0  0  0  0  0  0  0
    0.8670    0.4982    0.0000 C   0  0  0  0  0  0  0  0  0  0  0  0
    1.7320   -0.0034    0.0000 R   0  0  0  0  0  0  0  0  0  0  0  0
    0.8690    1.4982    0.0000 O   0  0  0  0  0  0  0  0  0  0  0  0
   -0.0020   -1.0000    0.0000 C   0  0  0  0  0  0  0  0  0  0  0  0
    0.8630   -1.5016    0.0000 C   0  0  0  0  0  0  0  0  0  0  0  0
   -0.8690   -1.4982    0.0000 C   0  0  0  0  0  0  0  0  0  0  0  0
  1  2  1  0
  2  3  1  0
  2  4  1  0
  4  5  1  0
  5  6  1  0
  5  7  2  0
  4  8  1  6
  8  9  1  0
  8 10  1  0
M  ISO  2   1   1   6   2
V    1 *
V    6 *
M  END
>  <symbol>  (292) 
meV

>  <m_Rgroups>  (292) 
[H],[OH],None,None,None,None

>  <m_abbr>  (292) 
meV

>  <m_name>  (292) 
N-Methyl-Valine

>  <m_type>  (292) 
aa

>  <m_subtype>  (292) 
natural

>  <m_chem_types>  (292) 
1:backbone_n,2:backbone_c

$$$$

     RDKit          2D

 14 14  0  0  0  0  0  0  0  0999 V2000
   -0.9920   -0.6393    0.0000 R   0  0  0  0  0  0  0  0  0  0  0  0
   -0.1278   -1.1425    0.0000 N   0  0  0  0  0  0  0  0  0  0  0  0
   -0.1314   -2.1423    0.0000 C   0  0  0  0  0  0  0  0  0  0  0  0
    0.7400   -0.6455    0.0000 C   0  0  0  0  0  0  0  0  0  0  0  0
    0.7436    0.3545    0.0000 C   0  0  0  0  0  0  0  0  0  0  0  0
   -0.1206    0.8575    0.0000 C   0  0  0  0  0  0  0  0  0  0  0  0
   -0.9884    0.3605    0.0000 C   0  0  0  0  0  0  0  0  0  0  0  0
   -1.8526    0.8637    0.0000 C   0  0  0  0  0  0  0  0  0  0  0  0
   -1.8492    1.8637    0.0000 C   0  0  0  0  0  0  0  0  0  0  0  0
   -0.9812    2.3607    0.0000 C   0  0  0  0  0  0  0  0  0  0  0  0
   -0.1172    1.8575    0.0000 C   0  0  0  0  0  0  0  0  0  0  0  0
    1.6042   -1.1487    0.0000 C   0  0  0  0  0  0  0  0  0  0  0  0
    1.6006   -2.1487    0.0000 R   0  0  0  0  0  0  0  0  0  0  0  0
    2.4720   -0.6517    0.0000 O   0  0  0  0  0  0  0  0  0  0  0  0
  1  2  1  0
  2  3  1  0
  2  4  1  0
  4  5  1  1
  5  6  1  0
  6  7  2  0
  7  8  1  0
  8  9  2  0
  9 10  1  0
 10 11  2  0
  4 12  1  0
 12 13  1  0
 12 14  2  0
 11  6  1  0
M  ISO  2   1   1  13   2
V    1 *
V   13 *
M  END
>  <symbol>  (293) 
meF

>  <m_Rgroups>  (293) 
[H],[OH],None,None,None,None

>  <m_abbr>  (293) 
meF

>  <m_name>  (293) 
N-Methyl-Phenylalanine

>  <m_type>  (293) 
aa

>  <m_subtype>  (293) 
natural

>  <m_chem_types>  (293) 
1:backbone_n,2:backbone_c

$$$$

     RDKit          2D

 18 19  0  0  0  0  0  0  0  0999 V2000
   -2.6300   -1.3297    0.0000 R   0  0  0  0  0  0  0  0  0  0  0  0
   -1.7628   -1.8279    0.0000 N   0  0  0  0  0  0  0  0  0  0  0  0
   -1.7608   -2.8281    0.0000 C   0  0  0  0  0  0  0  0  0  0  0  0
   -0.8980   -1.3261    0.0000 C   0  0  0  0  0  0  0  0  0  0  0  0
   -0.9000   -0.3261    0.0000 C   0  0  0  0  0  0  0  0  0  0  0  0
   -0.0352    0.1757    0.0000 C   0  0  0  0  0  0  0  0  0  0  0  0
    0.8792   -0.2289    0.0000 C   0  0  0  0  0  0  0  0  0  0  0  0
    1.5468    0.5155    0.0000 N   0  0  0  0  0  0  0  0  0  0  0  0
    2.5414    0.4133    0.0000 R   0  0  0  0  0  0  0  0  0  0  0  0
    1.0448    1.3805    0.0000 C   0  0  0  0  0  0  0  0  0  0  0  0
    1.3518    2.3321    0.0000 C   0  0  0  0  0  0  0  0  0  0  0  0
    0.6812    3.0739    0.0000 C   0  0  0  0  0  0  0  0  0  0  0  0
   -0.2966    2.8639    0.0000 C   0  0  0  0  0  0  0  0  0  0  0  0
   -0.6034    1.9121    0.0000 C   0  0  0  0  0  0  0  0  0  0  0  0
    0.0672    1.1705    0.0000 C   0  0  0  0  0  0  0  0  0  0  0  0
   -0.0310   -1.8243    0.0000 C   0  0  0  0  0  0  0  0  0  0  0  0
   -0.0290   -2.8243    0.0000 R   0  0  0  0  0  0  0  0  0  0  0  0
    0.8340   -1.3227    0.0000 O   0  0  0  0  0  0  0  0  0  0  0  0
  1  2  1  0
  2  3  1  0
  2  4  1  0
  4  5  1  1
  5  6  1  0
  6  7  2  0
  7  8  1  0
  8  9  1  0
  8 10  1  0
 10 11  2  0
 11 12  1  0
 12 13  2  0
 13 14  1  0
 14 15  2  0
  4 16  1  0
 16 17  1  0
 16 18  2  0
 15  6  1  0
 15 10  1  0
M  ISO  3   1   1   9   3  17   2
V    1 *
V    9 *
V   17 *
M  END
>  <symbol>  (294) 
meW

>  <m_Rgroups>  (294) 
[H],[OH],[H],None,None,None

>  <m_abbr>  (294) 
meW

>  <m_name>  (294) 
N-Methyl-Tryptophan

>  <m_type>  (294) 
aa

>  <m_subtype>  (294) 
natural

>  <m_chem_types>  (294) 
1:backbone_n,2:backbone_c,3:aromatic_nh

$$$$

     RDKit          2D

 10  9  0  0  0  0  0  0  0  0999 V2000
   -1.9050    0.1038    0.0000 R   0  0  0  0  0  0  0  0  0  0  0  0
   -1.0380    0.6020    0.0000 N   0  0  0  0  0  0  0  0  0  0  0  0
   -1.0360    1.6020    0.0000 C   0  0  0  0  0  0  0  0  0  0  0  0
   -0.1730    0.1004    0.0000 C   0  0  0  0  0  0  0  0  0  0  0  0
   -0.1750   -0.8996    0.0000 C   0  0  0  0  0  0  0  0  0  0  0  0
    0.6900   -1.4014    0.0000 O   0  0  0  0  0  0  0  0  0  0  0  0
    0.6880   -2.4014    0.0000 R   0  0  0  0  0  0  0  0  0  0  0  0
    0.6940    0.5986    0.0000 C   0  0  0  0  0  0  0  0  0  0  0  0
    1.5590    0.0968    0.0000 R   0  0  0  0  0  0  0  0  0  0  0  0
    0.6960    1.5986    0.0000 O   0  0  0  0  0  0  0  0  0  0  0  0
  1  2  1  0
  2  3  1  0
  2  4  1  0
  4  5  1  6
  5  6  1  0
  6  7  1  0
  4  8  1  0
  8  9  1  0
  8 10  2  0
M  ISO  3   1   1   7   3   9   2
V    1 *
V    7 *
V    9 *
M  END
>  <symbol>  (295) 
meS

>  <m_Rgroups>  (295) 
[H],[OH],[H],None,None,None

>  <m_abbr>  (295) 
meS

>  <m_name>  (295) 
N-Methyl-Serine

>  <m_type>  (295) 
aa

>  <m_subtype>  (295) 
natural

>  <m_chem_types>  (295) 
1:backbone_n,2:backbone_c,3:hydroxyl

$$$$
meT
     RDKit          2D

 11 10  0  0  0  0  0  0  0  0999 V2000
   -2.0616   -1.9640    0.0000 R   0  0  0  0  0  1  0  0  0  0  0  0
   -0.6443   -1.4730    0.0000 N   0  0  0  0  0  0  0  0  0  0  0  0
    0.4896   -2.4550    0.0000 C   0  0  0  0  0  0  0  0  0  0  0  0
   -0.3608   -0.0000    0.0000 C   0  0  0  0  0  0  0  0  0  0  0  0
   -1.4947    0.9820    0.0000 C   0  0  0  0  0  0  0  0  0  0  0  0
   -1.2112    2.4550    0.0000 R   0  0  0  0  0  1  0  0  0  0  0  0
   -2.9120    0.4910    0.0000 O   0  0  0  0  0  0  0  0  0  0  0  0
    1.0566    0.4910    0.0000 C   0  0  0  0  0  0  0  0  0  0  0  0
    1.3401    1.9640    0.0000 C   0  0  0  0  0  0  0  0  0  0  0  0
    2.1905   -0.4910    0.0000 O   0  0  0  0  0  0  0  0  0  0  0  0
    3.6078    0.0000    0.0000 R   0  0  0  0  0  1  0  0  0  0  0  0
  1  2  1  0
  2  3  1  0
  4  2  1  6
  4  5  1  0
  5  6  1  0
  5  7  2  0
  4  8  1  0
  8  9  1  1
  8 10  1  0
 10 11  1  0
M  ISO  3   1   1   6   2  11   3
M  END

>  <symbol>  (296) 
meT

>  <m_Rgroups>  (296) 
[H],[OH],[H],None,None,None

>  <m_abbr>  (296) 
meT

>  <m_name>  (296) 
N-Methyl-Threonine

>  <m_type>  (296) 
aa

>  <m_subtype>  (296) 
natural

>  <m_chem_types>  (296) 
1:backbone_n,2:backbone_c,3:hydroxyl

$$$$

     RDKit          2D

 10  9  0  0  0  0  0  0  0  0999 V2000
   -1.9050    0.1038    0.0000 R   0  0  0  0  0  0  0  0  0  0  0  0
   -1.0380    0.6020    0.0000 N   0  0  0  0  0  0  0  0  0  0  0  0
   -1.0360    1.6020    0.0000 C   0  0  0  0  0  0  0  0  0  0  0  0
   -0.1730    0.1004    0.0000 C   0  0  0  0  0  0  0  0  0  0  0  0
   -0.1750   -0.8996    0.0000 C   0  0  0  0  0  0  0  0  0  0  0  0
    0.6900   -1.4014    0.0000 S   0  0  0  0  0  0  0  0  0  0  0  0
    0.6880   -2.4014    0.0000 R   0  0  0  0  0  0  0  0  0  0  0  0
    0.6940    0.5986    0.0000 C   0  0  0  0  0  0  0  0  0  0  0  0
    1.5590    0.0968    0.0000 R   0  0  0  0  0  0  0  0  0  0  0  0
    0.6960    1.5986    0.0000 O   0  0  0  0  0  0  0  0  0  0  0  0
  1  2  1  0
  2  3  1  0
  2  4  1  0
  4  5  1  6
  5  6  1  0
  6  7  1  0
  4  8  1  0
  8  9  1  0
  8 10  2  0
M  ISO  3   1   1   7   3   9   2
V    1 *
V    7 *
V    9 *
M  END
>  <symbol>  (297) 
meC

>  <m_Rgroups>  (297) 
[H],[OH],[H],None,None,None

>  <m_abbr>  (297) 
meC

>  <m_name>  (297) 
N-Methyl-Cysteine

>  <m_type>  (297) 
aa

>  <m_subtype>  (297) 
natural

>  <m_chem_types>  (297) 
1:backbone_n,2:backbone_c,3:thiol

$$$$

     RDKit          2D

 16 16  0  0  0  0  0  0  0  0999 V2000
   -0.6531   -0.9977    0.0000 R   0  0  0  0  0  0  0  0  0  0  0  0
    0.2111   -1.5007    0.0000 N   0  0  0  0  0  0  0  0  0  0  0  0
    0.2075   -2.5007    0.0000 C   0  0  0  0  0  0  0  0  0  0  0  0
    1.0789   -1.0039    0.0000 C   0  0  0  0  0  0  0  0  0  0  0  0
    1.0825   -0.0039    0.0000 C   0  0  0  0  0  0  0  0  0  0  0  0
    0.2183    0.4991    0.0000 C   0  0  0  0  0  0  0  0  0  0  0  0
   -0.6495    0.0023    0.0000 C   0  0  0  0  0  0  0  0  0  0  0  0
   -1.5137    0.5055    0.0000 C   0  0  0  0  0  0  0  0  0  0  0  0
   -1.5101    1.5053    0.0000 C   0  0  0  0  0  0  0  0  0  0  0  0
   -2.3743    2.0085    0.0000 O   0  0  0  0  0  0  0  0  0  0  0  0
   -2.3707    3.0085    0.0000 R   0  0  0  0  0  0  0  0  0  0  0  0
   -0.6423    2.0023    0.0000 C   0  0  0  0  0  0  0  0  0  0  0  0
    0.2219    1.4991    0.0000 C   0  0  0  0  0  0  0  0  0  0  0  0
    1.9431   -1.5069    0.0000 C   0  0  0  0  0  0  0  0  0  0  0  0
    1.9395   -2.5069    0.0000 R   0  0  0  0  0  0  0  0  0  0  0  0
    2.8109   -1.0101    0.0000 O   0  0  0  0  0  0  0  0  0  0  0  0
  1  2  1  0
  2  3  1  0
  2  4  1  0
  4  5  1  1
  5  6  1  0
  6  7  1  0
  7  8  2  0
  8  9  1  0
  9 10  1  0
 10 11  1  0
  9 12  2  0
 12 13  1  0
  4 14  1  0
 14 15  1  0
 14 16  2  0
 13  6  2  0
M  ISO  3   1   1  11   3  15   2
V    1 *
V   11 *
V   15 *
M  END
>  <symbol>  (298) 
meY

>  <m_Rgroups>  (298) 
[H],[OH],[H],None,None,None

>  <m_abbr>  (298) 
meY

>  <m_name>  (298) 
N-Methyl-Tyrosine

>  <m_type>  (298) 
aa

>  <m_subtype>  (298) 
natural

>  <m_chem_types>  (298) 
1:backbone_n,2:backbone_c,3:hydroxyl_phenolic

$$$$

     RDKit          2D

 14 14  0  0  0  0  0  0  0  0999 V2000
   -1.1462   -0.6947    0.0000 R   0  0  0  0  0  0  0  0  0  0  0  0
   -0.2822   -1.1981    0.0000 N   0  0  0  0  0  0  0  0  0  0  0  0
   -0.2862   -2.1979    0.0000 C   0  0  0  0  0  0  0  0  0  0  0  0
    0.5858   -0.7015    0.0000 C   0  0  0  0  0  0  0  0  0  0  0  0
    0.5898    0.2983    0.0000 C   0  0  0  0  0  0  0  0  0  0  0  0
   -0.2740    0.8017    0.0000 C   0  0  0  0  0  0  0  0  0  0  0  0
   -1.1894    0.3985    0.0000 C   0  0  0  0  0  0  0  0  0  0  0  0
   -1.8552    1.1443    0.0000 N   0  0  0  0  0  0  0  0  0  0  0  0
   -1.3522    2.0085    0.0000 C   0  0  0  0  0  0  0  0  0  0  0  0
   -0.3748    1.7965    0.0000 N   0  0  0  0  0  0  0  0  0  0  0  0
    0.3710    2.4629    0.0000 R   0  0  0  0  0  0  0  0  0  0  0  0
    1.4500   -1.2049    0.0000 C   0  0  0  0  0  0  0  0  0  0  0  0
    1.4460   -2.2049    0.0000 R   0  0  0  0  0  0  0  0  0  0  0  0
    2.3180   -0.7085    0.0000 O   0  0  0  0  0  0  0  0  0  0  0  0
  1  2  1  0
  2  3  1  0
  2  4  1  0
  4  5  1  1
  5  6  1  0
  6  7  2  0
  7  8  1  0
  8  9  2  0
  9 10  1  0
 10 11  1  0
  4 12  1  0
 12 13  1  0
 12 14  2  0
 10  6  1  0
M  ISO  3   1   1  11   3  13   2
V    1 *
V   11 *
V   13 *
M  END
>  <symbol>  (299) 
meH

>  <m_Rgroups>  (299) 
[H],[OH],[H],None,None,None

>  <m_abbr>  (299) 
meH

>  <m_name>  (299) 
N-Methyl-Histidine

>  <m_type>  (299) 
aa

>  <m_subtype>  (299) 
natural

>  <m_chem_types>  (299) 
1:backbone_n,2:backbone_c,3:aromatic_nh

$$$$

     RDKit          2D

 11 10  0  0  0  0  0  0  0  0999 V2000
   -2.0465    0.1859    0.0000 R   0  0  0  0  0  0  0  0  0  0  0  0
   -1.1795    0.6841    0.0000 N   0  0  0  0  0  0  0  0  0  0  0  0
   -1.1775    1.6841    0.0000 C   0  0  0  0  0  0  0  0  0  0  0  0
   -0.3145    0.1825    0.0000 C   0  0  0  0  0  0  0  0  0  0  0  0
   -0.3165   -0.8175    0.0000 C   0  0  0  0  0  0  0  0  0  0  0  0
    0.5485   -1.3193    0.0000 C   0  0  0  0  0  0  0  0  0  0  0  0
    0.5465   -2.3193    0.0000 R   0  0  0  0  0  0  0  0  0  0  0  0
    1.4155   -0.8209    0.0000 O   0  0  0  0  0  0  0  0  0  0  0  0
    0.5525    0.6807    0.0000 C   0  0  0  0  0  0  0  0  0  0  0  0
    1.4175    0.1789    0.0000 R   0  0  0  0  0  0  0  0  0  0  0  0
    0.5545    1.6807    0.0000 O   0  0  0  0  0  0  0  0  0  0  0  0
  1  2  1  0
  2  3  1  0
  2  4  1  0
  4  5  1  6
  5  6  1  0
  6  7  1  0
  6  8  2  0
  4  9  1  0
  9 10  1  0
  9 11  2  0
M  ISO  3   1   1   7   3  10   2
V    1 *
V    7 *
V   10 *
M  END
>  <symbol>  (300) 
meD

>  <m_Rgroups>  (300) 
[H],[OH],[OH],None,None,None

>  <m_abbr>  (300) 
meD

>  <m_name>  (300) 
N-Methyl-Aspartic acid

>  <m_type>  (300) 
aa

>  <m_subtype>  (300) 
natural

>  <m_chem_types>  (300) 
1:backbone_n,2:backbone_c,3:carboxyl

$$$$

     RDKit          2D

 12 11  0  0  0  0  0  0  0  0999 V2000
   -2.0195   -0.5873    0.0000 R   0  0  0  0  0  0  0  0  0  0  0  0
   -1.1525   -1.0857    0.0000 N   0  0  0  0  0  0  0  0  0  0  0  0
   -1.1505   -2.0855    0.0000 C   0  0  0  0  0  0  0  0  0  0  0  0
   -0.2875   -0.5839    0.0000 C   0  0  0  0  0  0  0  0  0  0  0  0
   -0.2895    0.4161    0.0000 C   0  0  0  0  0  0  0  0  0  0  0  0
    0.5755    0.9177    0.0000 C   0  0  0  0  0  0  0  0  0  0  0  0
    0.5735    1.9177    0.0000 C   0  0  0  0  0  0  0  0  0  0  0  0
    1.4385    2.4195    0.0000 R   0  0  0  0  0  0  0  0  0  0  0  0
   -0.2935    2.4161    0.0000 O   0  0  0  0  0  0  0  0  0  0  0  0
    0.5795   -1.0821    0.0000 C   0  0  0  0  0  0  0  0  0  0  0  0
    1.4445   -0.5805    0.0000 R   0  0  0  0  0  0  0  0  0  0  0  0
    0.5815   -2.0821    0.0000 O   0  0  0  0  0  0  0  0  0  0  0  0
  1  2  1  0
  2  3  1  0
  2  4  1  0
  4  5  1  1
  5  6  1  0
  6  7  1  0
  7  8  1  0
  7  9  2  0
  4 10  1  0
 10 11  1  0
 10 12  2  0
M  ISO  3   1   1   8   3  11   2
V    1 *
V    8 *
V   11 *
M  END
>  <symbol>  (301) 
meE

>  <m_Rgroups>  (301) 
[H],[OH],[OH],None,None,None

>  <m_abbr>  (301) 
meE

>  <m_name>  (301) 
N-Methyl-Glutamic acid

>  <m_type>  (301) 
aa

>  <m_subtype>  (301) 
natural

>  <m_chem_types>  (301) 
1:backbone_n,2:backbone_c,3:carboxyl

$$$$

     RDKit          2D

 13 12  0  0  0  0  0  0  0  0999 V2000
   -2.1305    0.6196    0.0000 R   0  0  0  0  0  0  0  0  0  0  0  0
   -1.2635    1.1178    0.0000 N   0  0  0  0  0  0  0  0  0  0  0  0
   -1.2615    2.1178    0.0000 C   0  0  0  0  0  0  0  0  0  0  0  0
   -0.3985    0.6162    0.0000 C   0  0  0  0  0  0  0  0  0  0  0  0
   -0.4005   -0.3838    0.0000 C   0  0  0  0  0  0  0  0  0  0  0  0
    0.4645   -0.8856    0.0000 C   0  0  0  0  0  0  0  0  0  0  0  0
    1.3315   -0.3872    0.0000 O   0  0  0  0  0  0  0  0  0  0  0  0
    0.4625   -1.8856    0.0000 N   0  0  0  0  0  0  0  0  0  0  0  0
    1.3275   -2.3872    0.0000 R   0  0  0  0  0  0  0  0  0  0  0  0
   -0.4045   -2.3838    0.0000 R   0  0  0  0  0  0  0  0  0  0  0  0
    0.4687    1.1144    0.0000 C   0  0  0  0  0  0  0  0  0  0  0  0
    1.3337    0.6126    0.0000 R   0  0  0  0  0  0  0  0  0  0  0  0
    0.4707    2.1144    0.0000 O   0  0  0  0  0  0  0  0  0  0  0  0
  1  2  1  0
  2  3  1  0
  2  4  1  0
  4  5  1  6
  5  6  1  0
  6  7  2  0
  6  8  1  0
  8  9  1  0
  8 10  1  0
  4 11  1  0
 11 12  1  0
 11 13  2  0
M  ISO  4   1   1   9   3  10   4  12   2
V    1 *
V    9 *
V   10 *
V   12 *
M  END
>  <symbol>  (302) 
meN

>  <m_Rgroups>  (302) 
[H],[OH],[H],[H],None,None

>  <m_abbr>  (302) 
meN

>  <m_name>  (302) 
N-Methyl-Asparagine

>  <m_type>  (302) 
aa

>  <m_subtype>  (302) 
natural

>  <m_chem_types>  (302) 
1:backbone_n,2:backbone_c,3:amine_primary,4:amine_secondary

$$$$

     RDKit          2D

 14 13  0  0  0  0  0  0  0  0999 V2000
   -2.2868   -0.9688    0.0000 R   0  0  0  0  0  0  0  0  0  0  0  0
   -1.4198   -1.4672    0.0000 N   0  0  0  0  0  0  0  0  0  0  0  0
   -1.4178   -2.4670    0.0000 C   0  0  0  0  0  0  0  0  0  0  0  0
   -0.5548   -0.9654    0.0000 C   0  0  0  0  0  0  0  0  0  0  0  0
   -0.5568    0.0346    0.0000 C   0  0  0  0  0  0  0  0  0  0  0  0
    0.3082    0.5362    0.0000 C   0  0  0  0  0  0  0  0  0  0  0  0
    0.3062    1.5362    0.0000 C   0  0  0  0  0  0  0  0  0  0  0  0
   -0.5608    2.0346    0.0000 O   0  0  0  0  0  0  0  0  0  0  0  0
    1.1712    2.0380    0.0000 N   0  0  0  0  0  0  0  0  0  0  0  0
    1.1692    3.0380    0.0000 R   0  0  0  0  0  0  0  0  0  0  0  0
    2.0382    1.5398    0.0000 R   0  0  0  0  0  0  0  0  0  0  0  0
    0.3122   -1.4636    0.0000 C   0  0  0  0  0  0  0  0  0  0  0  0
    1.1772   -0.9620    0.0000 R   0  0  0  0  0  0  0  0  0  0  0  0
    0.3142   -2.4636    0.0000 O   0  0  0  0  0  0  0  0  0  0  0  0
  1  2  1  0
  2  3  1  0
  2  4  1  0
  4  5  1  1
  5  6  1  0
  6  7  1  0
  7  8  2  0
  7  9  1  0
  9 10  1  0
  9 11  1  0
  4 12  1  0
 12 13  1  0
 12 14  2  0
M  ISO  4   1   1  10   3  11   4  13   2
V    1 *
V   10 *
V   11 *
V   13 *
M  END
>  <symbol>  (303) 
meQ

>  <m_Rgroups>  (303) 
[H],[OH],[H],[H],None,None

>  <m_abbr>  (303) 
meQ

>  <m_name>  (303) 
N-Methyl-Glutamine

>  <m_type>  (303) 
aa

>  <m_subtype>  (303) 
natural

>  <m_chem_types>  (303) 
1:backbone_n,2:backbone_c,3:amine_primary,4:amine_secondary

$$$$

     RDKit          2D

 14 13  0  0  0  0  0  0  0  0999 V2000
   -2.3482    1.2190    0.0000 R   0  0  0  0  0  0  0  0  0  0  0  0
   -1.4812    1.7172    0.0000 N   0  0  0  0  0  0  0  0  0  0  0  0
   -1.4790    2.7172    0.0000 C   0  0  0  0  0  0  0  0  0  0  0  0
   -0.6162    1.2156    0.0000 C   0  0  0  0  0  0  0  0  0  0  0  0
   -0.6182    0.2156    0.0000 C   0  0  0  0  0  0  0  0  0  0  0  0
    0.2468   -0.2862    0.0000 C   0  0  0  0  0  0  0  0  0  0  0  0
    0.2448   -1.2862    0.0000 C   0  0  0  0  0  0  0  0  0  0  0  0
    1.1098   -1.7878    0.0000 C   0  0  0  0  0  0  0  0  0  0  0  0
    1.1078   -2.7878    0.0000 N   0  0  0  0  0  0  0  0  0  0  0  0
    1.9728   -3.2896    0.0000 R   0  0  0  0  0  0  0  0  0  0  0  0
    0.2408   -3.2860    0.0000 R   0  0  0  0  0  0  0  0  0  0  0  0
    0.2510    1.7138    0.0000 C   0  0  0  0  0  0  0  0  0  0  0  0
    1.1160    1.2120    0.0000 R   0  0  0  0  0  0  0  0  0  0  0  0
    0.2530    2.7138    0.0000 O   0  0  0  0  0  0  0  0  0  0  0  0
  1  2  1  0
  2  3  1  0
  2  4  1  0
  4  5  1  6
  5  6  1  0
  6  7  1  0
  7  8  1  0
  8  9  1  0
  9 10  1  0
  9 11  1  0
  4 12  1  0
 12 13  1  0
 12 14  2  0
M  ISO  4   1   1  10   3  11   4  13   2
V    1 *
V   10 *
V   11 *
V   13 *
M  END
>  <symbol>  (304) 
meK

>  <m_Rgroups>  (304) 
[H],[OH],[H],[H],None,None

>  <m_abbr>  (304) 
meK

>  <m_name>  (304) 
N-Methyl-Lysine

>  <m_type>  (304) 
aa

>  <m_subtype>  (304) 
natural

>  <m_chem_types>  (304) 
1:backbone_n,2:backbone_c,3:amine_primary,4:amine_secondary

$$$$

     RDKit          2D

 11 10  0  0  0  0  0  0  0  0999 V2000
   -2.0463    0.3676    0.0000 R   0  0  0  0  0  0  0  0  0  0  0  0
   -1.1791    0.8660    0.0000 N   0  0  0  0  0  0  0  0  0  0  0  0
   -1.1771    1.8660    0.0000 C   0  0  0  0  0  0  0  0  0  0  0  0
   -0.3141    0.3642    0.0000 C   0  0  0  0  0  0  0  0  0  0  0  0
   -0.3163   -0.6358    0.0000 C   0  0  0  0  0  0  0  0  0  0  0  0
    0.5487   -1.1374    0.0000 C   0  0  0  0  0  0  0  0  0  0  0  0
    0.5467   -2.1374    0.0000 S   0  0  0  0  0  0  0  0  0  0  0  0
    1.4117   -2.6392    0.0000 C   0  0  0  0  0  0  0  0  0  0  0  0
    0.5529    0.8624    0.0000 C   0  0  0  0  0  0  0  0  0  0  0  0
    1.4179    0.3608    0.0000 R   0  0  0  0  0  0  0  0  0  0  0  0
    0.5549    1.8624    0.0000 O   0  0  0  0  0  0  0  0  0  0  0  0
  1  2  1  0
  2  3  1  0
  2  4  1  0
  4  5  1  6
  5  6  1  0
  6  7  1  0
  7  8  1  0
  4  9  1  0
  9 10  1  0
  9 11  2  0
M  ISO  2   1   1  10   2
V    1 *
V   10 *
M  END
>  <symbol>  (305) 
meM

>  <m_Rgroups>  (305) 
[H],[OH],None,None,None,None

>  <m_abbr>  (305) 
meM

>  <m_name>  (305) 
N-Methyl-Methionine

>  <m_type>  (305) 
aa

>  <m_subtype>  (305) 
natural

>  <m_chem_types>  (305) 
1:backbone_n,2:backbone_c

$$$$

     RDKit          2D

  9  8  0  0  0  0  0  0  0  0999 V2000
    1.9245   -0.1395    0.0000 R   0  0  0  0  0  0  0  0  0  0  0  0
    1.0581    0.3599    0.0000 N   0  0  0  0  0  0  0  0  0  0  0  0
    1.0573    1.3599    0.0000 R   0  0  0  0  0  0  0  0  0  0  0  0
    0.1925   -0.1407    0.0000 C   0  0  0  0  0  0  0  0  0  0  0  0
    0.6933   -1.0063    0.0000 C   0  0  0  0  0  0  0  0  0  0  0  0
   -0.3067   -1.0071    0.0000 C   0  0  0  0  0  0  0  0  0  0  0  0
   -0.6739    0.3585    0.0000 C   0  0  0  0  0  0  0  0  0  0  0  0
   -1.5395   -0.1421    0.0000 O   0  0  0  0  0  0  0  0  0  0  0  0
   -2.4059    0.3571    0.0000 R   0  0  0  0  0  0  0  0  0  0  0  0
  1  2  1  0
  2  3  1  0
  2  4  1  0
  4  5  1  0
  4  6  1  0
  4  7  1  0
  7  8  1  0
  8  9  1  0
M  ISO  3   1   1   3   3   9   2
V    1 *
V    3 *
V    9 *
M  END
>  <symbol>  (306) 
Aib_ol

>  <m_Rgroups>  (306) 
[H],[H],[H],None,None,None

>  <m_abbr>  (306) 
Aib_ol

>  <m_name>  (306) 
2-amino-2-methylpropan-1-ol

>  <m_type>  (306) 
aa

>  <m_subtype>  (306) 
natural

>  <m_chem_types>  (306) 
1:backbone_n,2:backbone_o,3:backbone_n_mod

$$$$

     RDKit          2D

  8  7  0  0  0  0  0  0  0  0999 V2000
    1.9486   -0.2485    0.0000 R   0  0  0  0  0  0  0  0  0  0  0  0
    1.0824    0.2509    0.0000 N   0  0  0  0  0  0  0  0  0  0  0  0
    1.0816    1.2509    0.0000 R   0  0  0  0  0  0  0  0  0  0  0  0
    0.2166   -0.2499    0.0000 C   0  0  0  0  0  0  0  0  0  0  0  0
    0.2174   -1.2499    0.0000 C   0  0  0  0  0  0  0  0  0  0  0  0
   -0.6496    0.2495    0.0000 C   0  0  0  0  0  0  0  0  0  0  0  0
   -1.5154   -0.2513    0.0000 O   0  0  0  0  0  0  0  0  0  0  0  0
   -2.3816    0.2481    0.0000 R   0  0  0  0  0  0  0  0  0  0  0  0
  1  2  1  0
  2  3  1  0
  2  4  1  0
  4  5  1  1
  4  6  1  0
  6  7  1  0
  7  8  1  0
M  ISO  3   1   1   3   3   8   2
V    1 *
V    3 *
V    8 *
M  END
>  <symbol>  (307) 
Ala_ol

>  <m_Rgroups>  (307) 
[H],[H],[H],None,None,None

>  <m_abbr>  (307) 
Ala_ol

>  <m_name>  (307) 
(2S)-2-aminopropan-1-ol

>  <m_type>  (307) 
aa

>  <m_subtype>  (307) 
natural

>  <m_chem_types>  (307) 
1:backbone_n,2:backbone_o,3:backbone_n_mod

$$$$

     RDKit          2D

 13 13  0  0  0  0  0  0  0  0999 V2000
   -1.2671   -1.7297    0.0000 R   0  0  0  0  0  0  0  0  0  0  0  0
   -0.4007   -1.2305    0.0000 N   0  0  0  0  0  0  0  0  0  0  0  0
    0.4649   -1.7311    0.0000 R   0  0  0  0  0  0  0  0  0  0  0  0
   -0.3999   -0.2305    0.0000 C   0  0  0  0  0  0  0  0  0  0  0  0
   -1.2655    0.2703    0.0000 C   0  0  0  0  0  0  0  0  0  0  0  0
   -2.1319   -0.2291    0.0000 O   0  0  0  0  0  0  0  0  0  0  0  0
   -2.9975    0.2717    0.0000 R   0  0  0  0  0  0  0  0  0  0  0  0
    0.4665    0.2689    0.0000 C   0  0  0  0  0  0  0  0  0  0  0  0
    0.4673    1.2689    0.0000 C   0  0  0  0  0  0  0  0  0  0  0  0
    1.3337    1.7681    0.0000 C   0  0  0  0  0  0  0  0  0  0  0  0
    2.1995    1.2675    0.0000 C   0  0  0  0  0  0  0  0  0  0  0  0
    2.1987    0.2675    0.0000 C   0  0  0  0  0  0  0  0  0  0  0  0
    1.3321   -0.2317    0.0000 C   0  0  0  0  0  0  0  0  0  0  0  0
  1  2  1  0
  2  3  1  0
  2  4  1  0
  4  5  1  0
  5  6  1  0
  6  7  1  0
  4  8  1  0
  8  9  2  0
  9 10  1  0
 10 11  2  0
 11 12  1  0
 12 13  2  0
 13  8  1  0
M  ISO  3   1   1   3   3   7   2
V    1 *
V    3 *
V    7 *
M  END
>  <symbol>  (308) 
D_Phg_ol

>  <m_Rgroups>  (308) 
[H],[H],[H],None,None,None

>  <m_abbr>  (308) 
D_Phg_ol

>  <m_name>  (308) 
(2R)-2-amino-2-phenylethanol

>  <m_type>  (308) 
aa

>  <m_subtype>  (308) 
natural

>  <m_chem_types>  (308) 
1:backbone_n,2:backbone_o,3:backbone_n_mod

$$$$

     RDKit          2D

  9  9  0  0  0  0  0  0  0  0999 V2000
    1.1634    1.3575    0.0000 R   0  0  0  0  0  0  0  0  0  0  0  0
    0.9564    0.3791    0.0000 N   0  0  0  0  0  0  0  0  0  0  0  0
    1.6266   -0.3633    0.0000 C   0  0  0  0  0  0  0  0  0  0  0  0
    1.1274   -1.2297    0.0000 C   0  0  0  0  0  0  0  0  0  0  0  0
    0.1490   -1.0233    0.0000 C   0  0  0  0  0  0  0  0  0  0  0  0
    0.0434   -0.0285    0.0000 C   0  0  0  0  0  0  0  0  0  0  0  0
   -0.8232    0.4703    0.0000 C   0  0  0  0  0  0  0  0  0  0  0  0
   -1.6884   -0.0307    0.0000 O   0  0  0  0  0  0  0  0  0  0  0  0
   -2.5550    0.4683    0.0000 R   0  0  0  0  0  0  0  0  0  0  0  0
  1  2  1  0
  2  3  1  0
  3  4  1  0
  4  5  1  0
  5  6  1  0
  6  7  1  6
  7  8  1  0
  8  9  1  0
  6  2  1  0
M  ISO  2   1   1   9   2
V    1 *
V    9 *
M  END
>  <symbol>  (309) 
D_Pro_ol

>  <m_Rgroups>  (309) 
[H],[H],None,None,None,None

>  <m_abbr>  (309) 
D_Pro_ol

>  <m_name>  (309) 
[(2R)-pyrrolidin-2-yl]methanol

>  <m_type>  (309) 
aa

>  <m_subtype>  (309) 
natural

>  <m_chem_types>  (309) 
1:backbone_n,2:backbone_o

$$$$

     RDKit          2D

 11 10  0  0  0  0  0  0  0  0999 V2000
   -0.9459   -1.4539    0.0000 R   0  0  0  0  0  0  0  0  0  0  0  0
   -0.0795   -0.9545    0.0000 N   0  0  0  0  0  0  0  0  0  0  0  0
    0.7861   -1.4551    0.0000 R   0  0  0  0  0  0  0  0  0  0  0  0
   -0.0787    0.0455    0.0000 C   0  0  0  0  0  0  0  0  0  0  0  0
   -0.9443    0.5461    0.0000 C   0  0  0  0  0  0  0  0  0  0  0  0
   -1.8107    0.0469    0.0000 O   0  0  0  0  0  0  0  0  0  0  0  0
   -2.6763    0.5475    0.0000 R   0  0  0  0  0  0  0  0  0  0  0  0
    0.7877    0.5447    0.0000 C   0  0  0  0  0  0  0  0  0  0  0  0
    0.7885    1.5449    0.0000 C   0  0  0  0  0  0  0  0  0  0  0  0
    1.6533    0.0441    0.0000 O   0  0  0  0  0  0  0  0  0  0  0  0
    2.5197    0.5435    0.0000 R   0  0  0  0  0  0  0  0  0  0  0  0
  1  2  1  0
  2  3  1  0
  2  4  1  0
  4  5  1  6
  5  6  1  0
  6  7  1  0
  4  8  1  0
  8  9  1  1
  8 10  1  0
 10 11  1  0
M  ISO  4   1   1   3   3   7   2  11   4
V    1 *
V    3 *
V    7 *
V   11 *
M  END
>  <symbol>  (310) 
D_Thr_ol

>  <m_Rgroups>  (310) 
[H],[H],[H],[H],None,None

>  <m_abbr>  (310) 
D_Thr_ol

>  <m_name>  (310) 
(2R,3R)-2-aminobutane-1,3-diol

>  <m_type>  (310) 
aa

>  <m_subtype>  (310) 
natural

>  <m_chem_types>  (310) 
1:backbone_n,2:backbone_o,3:backbone_n_mod,4:hydroxyl

$$$$

     RDKit          2D

  6  5  0  0  0  0  0  0  0  0999 V2000
    1.5880   -0.4153    0.0000 R   0  0  0  0  0  0  0  0  0  0  0  0
    0.7216    0.0839    0.0000 N   0  0  0  0  0  0  0  0  0  0  0  0
    0.7208    1.0839    0.0000 R   0  0  0  0  0  0  0  0  0  0  0  0
   -0.1440   -0.4167    0.0000 C   0  0  0  0  0  0  0  0  0  0  0  0
   -1.0104    0.0825    0.0000 O   0  0  0  0  0  0  0  0  0  0  0  0
   -1.8760   -0.4181    0.0000 R   0  0  0  0  0  0  0  0  0  0  0  0
  1  2  1  0
  2  3  1  0
  2  4  1  0
  4  5  1  0
  5  6  1  0
M  ISO  3   1   1   3   3   6   2
V    1 *
V    3 *
V    6 *
M  END
>  <symbol>  (311) 
Gly_ol

>  <m_Rgroups>  (311) 
[H],[H],[H],None,None,None

>  <m_abbr>  (311) 
Gly_ol

>  <m_name>  (311) 
aminomethanol

>  <m_type>  (311) 
aa

>  <m_subtype>  (311) 
natural

>  <m_chem_types>  (311) 
1:backbone_n,2:backbone_o,3:backbone_n_mod

$$$$

     RDKit          2D

  8  8  0  0  0  0  0  0  0  0999 V2000
   -2.7475   -0.1561    0.0000 R   0  0  0  0  0  0  0  0  0  0  0  0
   -1.5934   -1.1143    0.0000 N   0  0  0  0  0  0  0  0  0  0  0  0
   -0.1866   -0.5940    0.0000 C   0  0  0  0  0  0  0  0  0  0  0  0
    1.0613   -1.4263    0.0000 C   0  0  0  0  0  0  0  0  0  0  0  0
    2.2385   -0.4968    0.0000 C   0  0  0  0  0  0  0  0  0  0  0  0
    1.7182    0.9101    0.0000 O   0  0  0  0  0  0  0  0  0  0  0  0
    0.2195    0.8500    0.0000 C   0  0  0  0  0  0  0  0  0  0  0  0
   -0.7101    2.0273    0.0000 O   0  0  0  0  0  0  0  0  0  0  0  0
  1  2  1  0
  3  2  1  6
  3  4  1  0
  4  5  1  0
  5  6  1  0
  6  7  1  0
  7  8  2  0
  7  3  1  0
M  ISO  1   1   1
V    1 *
M  END
>  <symbol>  (312) 
Hsl

>  <m_Rgroups>  (312) 
[H],None,None,None,None,None

>  <m_abbr>  (312) 
Hsl

>  <m_name>  (312) 
(3S)-3-aminooxolan-2-one

>  <m_type>  (312) 
aa

>  <m_subtype>  (312) 
natural

>  <m_chem_types>  (312) 
1:backbone_n,2:lactone_c

$$$$

     RDKit          2D

 11 10  0  0  0  0  0  0  0  0999 V2000
   -1.0244    1.2265    0.0000 R   0  0  0  0  0  0  0  0  0  0  0  0
   -0.1580    0.7271    0.0000 N   0  0  0  0  0  0  0  0  0  0  0  0
    0.7076    1.2277    0.0000 R   0  0  0  0  0  0  0  0  0  0  0  0
   -0.1572   -0.2729    0.0000 C   0  0  0  0  0  0  0  0  0  0  0  0
   -1.0228   -0.7735    0.0000 C   0  0  0  0  0  0  0  0  0  0  0  0
   -1.8892   -0.2743    0.0000 O   0  0  0  0  0  0  0  0  0  0  0  0
   -2.7548   -0.7749    0.0000 R   0  0  0  0  0  0  0  0  0  0  0  0
    0.7092   -0.7723    0.0000 C   0  0  0  0  0  0  0  0  0  0  0  0
    1.5748   -0.2715    0.0000 C   0  0  0  0  0  0  0  0  0  0  0  0
    2.4412   -0.7709    0.0000 C   0  0  0  0  0  0  0  0  0  0  0  0
    1.5740    0.7285    0.0000 C   0  0  0  0  0  0  0  0  0  0  0  0
  1  2  1  0
  2  3  1  0
  2  4  1  0
  4  5  1  1
  5  6  1  0
  6  7  1  0
  4  8  1  0
  8  9  1  0
  9 10  1  0
  9 11  1  0
M  ISO  3   1   1   3   3   7   2
V    1 *
V    3 *
V    7 *
M  END
>  <symbol>  (313) 
Leu_ol

>  <m_Rgroups>  (313) 
[H],[H],[H],None,None,None

>  <m_abbr>  (313) 
Leu_ol

>  <m_name>  (313) 
(2S)-2-amino-4-methylpentan-1-ol

>  <m_type>  (313) 
aa

>  <m_subtype>  (313) 
natural

>  <m_chem_types>  (313) 
1:backbone_n,2:backbone_o,3:backbone_n_mod

$$$$

     RDKit          2D

 14 13  0  0  0  0  0  0  0  0999 V2000
    0.3699   -1.5003    0.0000 R   0  0  0  0  0  0  0  0  0  0  0  0
    1.2363   -1.0009    0.0000 N   0  0  0  0  0  0  0  0  0  0  0  0
    2.1019   -1.5017    0.0000 R   0  0  0  0  0  0  0  0  0  0  0  0
    1.2371   -0.0009    0.0000 C   0  0  0  0  0  0  0  0  0  0  0  0
    0.3715    0.4997    0.0000 C   0  0  0  0  0  0  0  0  0  0  0  0
   -0.4949    0.0005    0.0000 C   0  0  0  0  0  0  0  0  0  0  0  0
   -1.3605    0.5011    0.0000 C   0  0  0  0  0  0  0  0  0  0  0  0
   -2.2269    0.0019    0.0000 C   0  0  0  0  0  0  0  0  0  0  0  0
   -3.0925    0.5025    0.0000 N   0  0  0  0  0  0  0  0  0  0  0  0
   -3.9589    0.0031    0.0000 R   0  0  0  0  0  0  0  0  0  0  0  0
   -3.0917    1.5025    0.0000 R   0  0  0  0  0  0  0  0  0  0  0  0
    2.1035    0.4983    0.0000 C   0  0  0  0  0  0  0  0  0  0  0  0
    2.9691   -0.0023    0.0000 O   0  0  0  0  0  0  0  0  0  0  0  0
    3.8355    0.4969    0.0000 R   0  0  0  0  0  0  0  0  0  0  0  0
  1  2  1  0
  2  3  1  0
  2  4  1  0
  4  5  1  1
  5  6  1  0
  6  7  1  0
  7  8  1  0
  8  9  1  0
  9 10  1  0
  9 11  1  0
  4 12  1  0
 12 13  1  0
 13 14  1  0
M  ISO  5   1   1   3   3  10   4  11   5  14   2
V    1 *
V    3 *
V   10 *
V   11 *
V   14 *
M  END
>  <symbol>  (314) 
Lys_ol

>  <m_Rgroups>  (314) 
[H],[H],[H],[H],[H],None

>  <m_abbr>  (314) 
Lys_ol

>  <m_name>  (314) 
(2S)-2,6-diaminohexan-1-ol

>  <m_type>  (314) 
aa

>  <m_subtype>  (314) 
natural

>  <m_chem_types>  (314) 
1:backbone_n,2:backbone_o,3:backbone_n_mod,4:amine_primary,5:amine_secondary

$$$$

     RDKit          2D

 14 14  0  0  0  0  0  0  0  0999 V2000
   -1.6693    1.1085    0.0000 R   0  0  0  0  0  0  0  0  0  0  0  0
   -0.8037    0.6077    0.0000 N   0  0  0  0  0  0  0  0  0  0  0  0
    0.0627    1.1071    0.0000 R   0  0  0  0  0  0  0  0  0  0  0  0
   -0.8045   -0.3923    0.0000 C   0  0  0  0  0  0  0  0  0  0  0  0
   -1.6709   -0.8915    0.0000 C   0  0  0  0  0  0  0  0  0  0  0  0
   -2.5365   -0.3909    0.0000 O   0  0  0  0  0  0  0  0  0  0  0  0
   -3.4029   -0.8901    0.0000 R   0  0  0  0  0  0  0  0  0  0  0  0
    0.0611   -0.8929    0.0000 C   0  0  0  0  0  0  0  0  0  0  0  0
    0.9275   -0.3937    0.0000 C   0  0  0  0  0  0  0  0  0  0  0  0
    0.9283    0.6065    0.0000 C   0  0  0  0  0  0  0  0  0  0  0  0
    1.7947    1.1055    0.0000 C   0  0  0  0  0  0  0  0  0  0  0  0
    2.6603    0.6051    0.0000 C   0  0  0  0  0  0  0  0  0  0  0  0
    2.6595   -0.3951    0.0000 C   0  0  0  0  0  0  0  0  0  0  0  0
    1.7931   -0.8943    0.0000 C   0  0  0  0  0  0  0  0  0  0  0  0
  1  2  1  0
  2  3  1  0
  2  4  1  0
  4  5  1  1
  5  6  1  0
  6  7  1  0
  4  8  1  0
  8  9  1  0
  9 10  2  0
 10 11  1  0
 11 12  2  0
 12 13  1  0
 13 14  2  0
 14  9  1  0
M  ISO  3   1   1   3   3   7   2
V    1 *
V    3 *
V    7 *
M  END
>  <symbol>  (315) 
Phe_ol

>  <m_Rgroups>  (315) 
[H],[H],[H],None,None,None

>  <m_abbr>  (315) 
Phe_ol

>  <m_name>  (315) 
(2S)-2-amino-3-phenylpropan-1-ol

>  <m_type>  (315) 
aa

>  <m_subtype>  (315) 
natural

>  <m_chem_types>  (315) 
1:backbone_n,2:backbone_o,3:backbone_n_mod

$$$$

     RDKit          2D

 13 13  0  0  0  0  0  0  0  0999 V2000
   -1.2671   -1.7297    0.0000 R   0  0  0  0  0  0  0  0  0  0  0  0
   -0.4007   -1.2305    0.0000 N   0  0  0  0  0  0  0  0  0  0  0  0
    0.4649   -1.7311    0.0000 R   0  0  0  0  0  0  0  0  0  0  0  0
   -0.3999   -0.2305    0.0000 C   0  0  0  0  0  0  0  0  0  0  0  0
   -1.2655    0.2703    0.0000 C   0  0  0  0  0  0  0  0  0  0  0  0
   -2.1319   -0.2291    0.0000 O   0  0  0  0  0  0  0  0  0  0  0  0
   -2.9975    0.2717    0.0000 R   0  0  0  0  0  0  0  0  0  0  0  0
    0.4665    0.2689    0.0000 C   0  0  0  0  0  0  0  0  0  0  0  0
    0.4673    1.2689    0.0000 C   0  0  0  0  0  0  0  0  0  0  0  0
    1.3337    1.7681    0.0000 C   0  0  0  0  0  0  0  0  0  0  0  0
    2.1995    1.2675    0.0000 C   0  0  0  0  0  0  0  0  0  0  0  0
    2.1987    0.2675    0.0000 C   0  0  0  0  0  0  0  0  0  0  0  0
    1.3321   -0.2317    0.0000 C   0  0  0  0  0  0  0  0  0  0  0  0
  1  2  1  0
  2  3  1  0
  2  4  1  0
  4  5  1  6
  5  6  1  0
  6  7  1  0
  4  8  1  0
  8  9  2  0
  9 10  1  0
 10 11  2  0
 11 12  1  0
 12 13  2  0
 13  8  1  0
M  ISO  3   1   1   3   3   7   2
V    1 *
V    3 *
V    7 *
M  END
>  <symbol>  (316) 
Phg_ol

>  <m_Rgroups>  (316) 
[H],[H],[H],None,None,None

>  <m_abbr>  (316) 
Phg_ol

>  <m_name>  (316) 
(2S)-2-amino-2-phenylethanol

>  <m_type>  (316) 
aa

>  <m_subtype>  (316) 
natural

>  <m_chem_types>  (316) 
1:backbone_n,2:backbone_o,3:backbone_n_mod

$$$$

     RDKit          2D

  9  9  0  0  0  0  0  0  0  0999 V2000
    1.1634    1.3575    0.0000 R   0  0  0  0  0  0  0  0  0  0  0  0
    0.9564    0.3791    0.0000 N   0  0  0  0  0  0  0  0  0  0  0  0
    1.6266   -0.3633    0.0000 C   0  0  0  0  0  0  0  0  0  0  0  0
    1.1274   -1.2297    0.0000 C   0  0  0  0  0  0  0  0  0  0  0  0
    0.1490   -1.0233    0.0000 C   0  0  0  0  0  0  0  0  0  0  0  0
    0.0434   -0.0285    0.0000 C   0  0  0  0  0  0  0  0  0  0  0  0
   -0.8232    0.4703    0.0000 C   0  0  0  0  0  0  0  0  0  0  0  0
   -1.6884   -0.0307    0.0000 O   0  0  0  0  0  0  0  0  0  0  0  0
   -2.5550    0.4683    0.0000 R   0  0  0  0  0  0  0  0  0  0  0  0
  1  2  1  0
  2  3  1  0
  3  4  1  0
  4  5  1  0
  5  6  1  0
  6  7  1  1
  7  8  1  0
  8  9  1  0
  6  2  1  0
M  ISO  2   1   1   9   2
V    1 *
V    9 *
M  END
>  <symbol>  (317) 
Pro_ol

>  <m_Rgroups>  (317) 
[H],[H],None,None,None,None

>  <m_abbr>  (317) 
Pro_ol

>  <m_name>  (317) 
[(2S)-pyrrolidin-2-yl]methanol

>  <m_type>  (317) 
aa

>  <m_subtype>  (317) 
natural

>  <m_chem_types>  (317) 
1:backbone_n,2:backbone_o

$$$$

     RDKit          2D

 11 10  0  0  0  0  0  0  0  0999 V2000
   -0.9459   -1.4539    0.0000 R   0  0  0  0  0  0  0  0  0  0  0  0
   -0.0795   -0.9545    0.0000 N   0  0  0  0  0  0  0  0  0  0  0  0
    0.7861   -1.4551    0.0000 R   0  0  0  0  0  0  0  0  0  0  0  0
   -0.0787    0.0455    0.0000 C   0  0  0  0  0  0  0  0  0  0  0  0
   -0.9443    0.5461    0.0000 C   0  0  0  0  0  0  0  0  0  0  0  0
   -1.8107    0.0469    0.0000 O   0  0  0  0  0  0  0  0  0  0  0  0
   -2.6763    0.5475    0.0000 R   0  0  0  0  0  0  0  0  0  0  0  0
    0.7877    0.5447    0.0000 C   0  0  0  0  0  0  0  0  0  0  0  0
    0.7885    1.5449    0.0000 C   0  0  0  0  0  0  0  0  0  0  0  0
    1.6533    0.0441    0.0000 O   0  0  0  0  0  0  0  0  0  0  0  0
    2.5197    0.5435    0.0000 R   0  0  0  0  0  0  0  0  0  0  0  0
  1  2  1  0
  2  3  1  0
  2  4  1  0
  4  5  1  1
  5  6  1  0
  6  7  1  0
  4  8  1  0
  8  9  1  6
  8 10  1  0
 10 11  1  0
M  ISO  4   1   1   3   3   7   2  11   4
V    1 *
V    3 *
V    7 *
V   11 *
M  END
>  <symbol>  (318) 
Thr_ol

>  <m_Rgroups>  (318) 
[H],[H],[H],[H],None,None

>  <m_abbr>  (318) 
Thr_ol

>  <m_name>  (318) 
(2S,3S)-2-aminobutane-1,3-diol

>  <m_type>  (318) 
aa

>  <m_subtype>  (318) 
natural

>  <m_chem_types>  (318) 
1:backbone_n,2:backbone_o,3:backbone_n_mod,4:hydroxyl

$$$$

     RDKit          2D

 10  9  0  0  0  0  0  0  0  0999 V2000
    1.9051    0.1016    0.0000 R   0  0  0  0  0  0  0  0  0  0  0  0
    1.0387    0.6008    0.0000 N   0  0  0  0  0  0  0  0  0  0  0  0
    1.0379    1.6008    0.0000 R   0  0  0  0  0  0  0  0  0  0  0  0
    0.1731    0.1002    0.0000 C   0  0  0  0  0  0  0  0  0  0  0  0
   -0.6933    0.5994    0.0000 C   0  0  0  0  0  0  0  0  0  0  0  0
   -1.5589    0.0988    0.0000 O   0  0  0  0  0  0  0  0  0  0  0  0
   -2.4253    0.5980    0.0000 R   0  0  0  0  0  0  0  0  0  0  0  0
    0.1739   -0.8998    0.0000 C   0  0  0  0  0  0  0  0  0  0  0  0
   -0.6917   -1.4006    0.0000 C   0  0  0  0  0  0  0  0  0  0  0  0
    1.0403   -1.3992    0.0000 C   0  0  0  0  0  0  0  0  0  0  0  0
  1  2  1  0
  2  3  1  0
  2  4  1  0
  4  5  1  1
  5  6  1  0
  6  7  1  0
  4  8  1  0
  8  9  1  0
  8 10  1  0
M  ISO  3   1   1   3   3   7   2
V    1 *
V    3 *
V    7 *
M  END
>  <symbol>  (319) 
Val_ol

>  <m_Rgroups>  (319) 
[H],[H],[H],None,None,None

>  <m_abbr>  (319) 
Val_ol

>  <m_name>  (319) 
(2S)-2-amino-3-methylbutan-1-ol

>  <m_type>  (319) 
aa

>  <m_subtype>  (319) 
natural

>  <m_chem_types>  (319) 
1:backbone_n,2:backbone_o,3:backbone_n_mod

$$$$

     RDKit          2D

  8  7  0  0  0  0  0  0  0  0999 V2000
   -1.7322   -0.3736    0.0000 R   0  0  0  0  0  0  0  0  0  0  0  0
   -0.8660    0.1256    0.0000 N   0  0  0  0  0  0  0  0  0  0  0  0
   -0.8652    1.1256    0.0000 R   0  0  0  0  0  0  0  0  0  0  0  0
   -0.0002   -0.3750    0.0000 C   0  0  0  0  0  0  0  0  0  0  0  0
   -0.0010   -1.3750    0.0000 C   0  0  0  0  0  0  0  0  0  0  0  0
    0.8660    0.1244    0.0000 C   0  0  0  0  0  0  0  0  0  0  0  0
    1.7318   -0.3764    0.0000 R   0  0  0  0  0  0  0  0  0  0  0  0
    0.8668    1.1244    0.0000 O   0  0  0  0  0  0  0  0  0  0  0  0
  1  2  1  0
  2  3  1  0
  2  4  1  0
  4  5  1  6
  4  6  1  0
  6  7  1  0
  6  8  2  0
M  ISO  3   1   1   3   3   7   2
V    1 *
V    3 *
V    7 *
M  END
>  <symbol>  (320) 
Ala_al

>  <m_Rgroups>  (320) 
[H],[H],[H],None,None,None

>  <m_abbr>  (320) 
Ala_al

>  <m_name>  (320) 
(2S)-2-aminopropanal

>  <m_type>  (320) 
aa

>  <m_subtype>  (320) 
natural

>  <m_chem_types>  (320) 
1:backbone_n,2:backbone_c,3:backbone_n_mod

$$$$

     RDKit          2D

  7  6  0  0  0  0  0  0  0  0999 V2000
   -1.7325   -0.5700    0.0000 R   0  0  0  0  0  0  0  0  0  0  0  0
   -0.8661   -0.0708    0.0000 N   0  0  0  0  0  0  0  0  0  0  0  0
   -0.8653    0.9292    0.0000 R   0  0  0  0  0  0  0  0  0  0  0  0
   -0.0005   -0.5714    0.0000 C   0  0  0  0  0  0  0  0  0  0  0  0
    0.8659   -0.0722    0.0000 C   0  0  0  0  0  0  0  0  0  0  0  0
    1.7315   -0.5728    0.0000 R   0  0  0  0  0  0  0  0  0  0  0  0
    0.8667    0.9278    0.0000 O   0  0  0  0  0  0  0  0  0  0  0  0
  1  2  1  0
  2  3  1  0
  2  4  1  0
  4  5  1  0
  5  6  1  0
  5  7  2  0
M  ISO  3   1   1   3   3   6   2
V    1 *
V    3 *
V    6 *
M  END
>  <symbol>  (321) 
Gly_al

>  <m_Rgroups>  (321) 
[H],[H],[H],None,None,None

>  <m_abbr>  (321) 
Gly_al

>  <m_name>  (321) 
2-aminoacetaldehyde

>  <m_type>  (321) 
aa

>  <m_subtype>  (321) 
natural

>  <m_chem_types>  (321) 
1:backbone_n,2:backbone_c,3:backbone_n_mod

$$$$

     RDKit          2D

 11 10  0  0  0  0  0  0  0  0999 V2000
   -1.1775    1.6841    0.0000 R   0  0  0  0  0  0  0  0  0  0  0  0
   -1.1795    0.6841    0.0000 N   0  0  0  0  0  0  0  0  0  0  0  0
   -2.0465    0.1859    0.0000 R   0  0  0  0  0  0  0  0  0  0  0  0
   -0.3145    0.1825    0.0000 C   0  0  0  0  0  0  0  0  0  0  0  0
   -0.3165   -0.8175    0.0000 C   0  0  0  0  0  0  0  0  0  0  0  0
    0.5485   -1.3193    0.0000 C   0  0  0  0  0  0  0  0  0  0  0  0
    0.5465   -2.3193    0.0000 C   0  0  0  0  0  0  0  0  0  0  0  0
    1.4155   -0.8209    0.0000 C   0  0  0  0  0  0  0  0  0  0  0  0
    0.5525    0.6807    0.0000 C   0  0  0  0  0  0  0  0  0  0  0  0
    1.4175    0.1789    0.0000 R   0  0  0  0  0  0  0  0  0  0  0  0
    0.5545    1.6807    0.0000 O   0  0  0  0  0  0  0  0  0  0  0  0
  1  2  1  0
  2  3  1  0
  2  4  1  0
  4  5  1  6
  5  6  1  0
  6  7  1  0
  6  8  1  0
  4  9  1  0
  9 10  1  0
  9 11  2  0
M  ISO  3   1   1   3   3  10   2
V    1 *
V    3 *
V   10 *
M  END
>  <symbol>  (322) 
Leu_al

>  <m_Rgroups>  (322) 
[H],[H],[H],None,None,None

>  <m_abbr>  (322) 
Leu_al

>  <m_name>  (322) 
(2S)-2-amino-4-methylpentanal

>  <m_type>  (322) 
aa

>  <m_subtype>  (322) 
natural

>  <m_chem_types>  (322) 
1:backbone_n,2:backbone_c,3:backbone_n_mod

$$$$

     RDKit          2D

 14 13  0  0  0  0  0  0  0  0999 V2000
   -1.4790    2.7172    0.0000 R   0  0  0  0  0  0  0  0  0  0  0  0
   -1.4812    1.7172    0.0000 N   0  0  0  0  0  0  0  0  0  0  0  0
   -2.3482    1.2190    0.0000 R   0  0  0  0  0  0  0  0  0  0  0  0
   -0.6162    1.2156    0.0000 C   0  0  0  0  0  0  0  0  0  0  0  0
   -0.6182    0.2156    0.0000 C   0  0  0  0  0  0  0  0  0  0  0  0
    0.2468   -0.2862    0.0000 C   0  0  0  0  0  0  0  0  0  0  0  0
    0.2448   -1.2862    0.0000 C   0  0  0  0  0  0  0  0  0  0  0  0
    1.1098   -1.7878    0.0000 C   0  0  0  0  0  0  0  0  0  0  0  0
    1.1078   -2.7878    0.0000 N   0  0  0  0  0  0  0  0  0  0  0  0
    1.9728   -3.2896    0.0000 R   0  0  0  0  0  0  0  0  0  0  0  0
    0.2408   -3.2860    0.0000 R   0  0  0  0  0  0  0  0  0  0  0  0
    0.2510    1.7138    0.0000 C   0  0  0  0  0  0  0  0  0  0  0  0
    1.1160    1.2120    0.0000 R   0  0  0  0  0  0  0  0  0  0  0  0
    0.2530    2.7138    0.0000 O   0  0  0  0  0  0  0  0  0  0  0  0
  1  2  1  0
  2  3  1  0
  2  4  1  0
  4  5  1  6
  5  6  1  0
  6  7  1  0
  7  8  1  0
  8  9  1  0
  9 10  1  0
  9 11  1  0
  4 12  1  0
 12 13  1  0
 12 14  2  0
M  ISO  5   1   1   3   3  10   4  11   5  13   2
V    1 *
V    3 *
V   10 *
V   11 *
V   13 *
M  END
>  <symbol>  (323) 
Lys_al

>  <m_Rgroups>  (323) 
[H],[H],[H],[H],[H],None

>  <m_abbr>  (323) 
Lys_al

>  <m_name>  (323) 
(2S)-2,6-diaminohexanal

>  <m_type>  (323) 
aa

>  <m_subtype>  (323) 
natural

>  <m_chem_types>  (323) 
1:backbone_n,2:backbone_c,3:backbone_n_mod,4:amine_primary,5:amine_secondary

$$$$

     RDKit          2D

 14 14  0  0  0  0  0  0  0  0999 V2000
   -0.1314   -2.1423    0.0000 R   0  0  0  0  0  0  0  0  0  0  0  0
   -0.1278   -1.1425    0.0000 N   0  0  0  0  0  0  0  0  0  0  0  0
   -0.9920   -0.6393    0.0000 R   0  0  0  0  0  0  0  0  0  0  0  0
    0.7400   -0.6455    0.0000 C   0  0  0  0  0  0  0  0  0  0  0  0
    0.7436    0.3545    0.0000 C   0  0  0  0  0  0  0  0  0  0  0  0
   -0.1206    0.8575    0.0000 C   0  0  0  0  0  0  0  0  0  0  0  0
   -0.9884    0.3605    0.0000 C   0  0  0  0  0  0  0  0  0  0  0  0
   -1.8526    0.8637    0.0000 C   0  0  0  0  0  0  0  0  0  0  0  0
   -1.8492    1.8637    0.0000 C   0  0  0  0  0  0  0  0  0  0  0  0
   -0.9812    2.3607    0.0000 C   0  0  0  0  0  0  0  0  0  0  0  0
   -0.1172    1.8575    0.0000 C   0  0  0  0  0  0  0  0  0  0  0  0
    1.6042   -1.1487    0.0000 C   0  0  0  0  0  0  0  0  0  0  0  0
    1.6006   -2.1487    0.0000 R   0  0  0  0  0  0  0  0  0  0  0  0
    2.4720   -0.6517    0.0000 O   0  0  0  0  0  0  0  0  0  0  0  0
  1  2  1  0
  2  3  1  0
  2  4  1  0
  4  5  1  1
  5  6  1  0
  6  7  2  0
  7  8  1  0
  8  9  2  0
  9 10  1  0
 10 11  2  0
  4 12  1  0
 12 13  1  0
 12 14  2  0
 11  6  1  0
M  ISO  3   1   1   3   3  13   2
V    1 *
V    3 *
V   13 *
M  END
>  <symbol>  (324) 
Phe_al

>  <m_Rgroups>  (324) 
[H],[H],[H],None,None,None

>  <m_abbr>  (324) 
Phe_al

>  <m_name>  (324) 
(2S)-2-amino-3-phenylpropanal

>  <m_type>  (324) 
aa

>  <m_subtype>  (324) 
natural

>  <m_chem_types>  (324) 
1:backbone_n,2:backbone_c,3:backbone_n_mod

$$$$

     RDKit          2D

  9  9  0  0  0  0  0  0  0  0999 V2000
   -0.9077    1.2931    0.0000 R   0  0  0  0  0  0  0  0  0  0  0  0
   -0.7499    0.3057    0.0000 N   0  0  0  0  0  0  0  0  0  0  0  0
   -1.4561   -0.4023    0.0000 C   0  0  0  0  0  0  0  0  0  0  0  0
   -1.0011   -1.2927    0.0000 C   0  0  0  0  0  0  0  0  0  0  0  0
   -0.0137   -1.1351    0.0000 C   0  0  0  0  0  0  0  0  0  0  0  0
    0.1415   -0.1473    0.0000 C   0  0  0  0  0  0  0  0  0  0  0  0
    1.0321    0.3079    0.0000 C   0  0  0  0  0  0  0  0  0  0  0  0
    1.8713   -0.2357    0.0000 R   0  0  0  0  0  0  0  0  0  0  0  0
    1.0833    1.3065    0.0000 O   0  0  0  0  0  0  0  0  0  0  0  0
  1  2  1  0
  2  3  1  0
  3  4  1  0
  4  5  1  0
  5  6  1  0
  6  7  1  6
  7  8  1  0
  7  9  2  0
  6  2  1  0
M  ISO  2   1   1   8   2
V    1 *
V    8 *
M  END
>  <symbol>  (325) 
Pro_al

>  <m_Rgroups>  (325) 
[H],[H],None,None,None,None

>  <m_abbr>  (325) 
Pro_al

>  <m_name>  (325) 
(2S)-pyrrolidine-2-carbaldehyde

>  <m_type>  (325) 
aa

>  <m_subtype>  (325) 
natural

>  <m_chem_types>  (325) 
1:backbone_n,2:backbone_c

$$$$

     RDKit          2D

 13 13  0  0  0  0  0  0  0  0999 V2000
   -1.8012   -1.1888    0.0000 R   0  0  0  0  0  0  0  0  0  0  0  0
   -1.7990   -0.1888    0.0000 N   0  0  0  0  0  0  0  0  0  0  0  0
   -2.6640    0.3130    0.0000 C   0  0  0  0  0  0  0  0  0  0  0  0
   -0.9320    0.3096    0.0000 C   0  0  0  0  0  0  0  0  0  0  0  0
   -0.0672   -0.1922    0.0000 C   0  0  0  0  0  0  0  0  0  0  0  0
   -0.0690   -1.1922    0.0000 C   0  0  0  0  0  0  0  0  0  0  0  0
    0.7960   -1.6940    0.0000 C   0  0  0  0  0  0  0  0  0  0  0  0
    1.6630   -1.1956    0.0000 C   0  0  0  0  0  0  0  0  0  0  0  0
    1.6650   -0.1956    0.0000 C   0  0  0  0  0  0  0  0  0  0  0  0
    0.8000    0.3062    0.0000 C   0  0  0  0  0  0  0  0  0  0  0  0
    0.8020    1.3060    0.0000 C   0  0  0  0  0  0  0  0  0  0  0  0
    1.6690    1.8042    0.0000 R   0  0  0  0  0  0  0  0  0  0  0  0
   -0.0630    1.8078    0.0000 O   0  0  0  0  0  0  0  0  0  0  0  0
  1  2  1  0
  2  3  1  0
  2  4  1  0
  4  5  1  0
  5  6  2  0
  6  7  1  0
  7  8  2  0
  8  9  1  0
  9 10  2  0
 10 11  1  0
 11 12  1  0
 11 13  2  0
 10  5  1  0
M  ISO  2   1   1  12   2
V    1 *
V   12 *
M  END
>  <symbol>  (326) 
NMe2Abz

>  <m_Rgroups>  (326) 
[H],[OH],None,None,None,None

>  <m_abbr>  (326) 
NMe2Abz

>  <m_name>  (326) 
2-(methylamino)benzoic acid

>  <m_type>  (326) 
aa

>  <m_subtype>  (326) 
natural

>  <m_chem_types>  (326) 
1:backbone_n,2:backbone_c

$$$$

     RDKit          2D

 12 12  0  0  0  0  0  0  0  0999 V2000
   -2.5984   -0.4980    0.0000 R   0  0  0  0  0  0  0  0  0  0  0  0
   -1.7328   -0.9986    0.0000 N   0  0  0  0  0  0  0  0  0  0  0  0
   -1.7336   -1.9986    0.0000 C   0  0  0  0  0  0  0  0  0  0  0  0
   -0.8664   -0.4994    0.0000 C   0  0  0  0  0  0  0  0  0  0  0  0
   -0.8656    0.5006    0.0000 C   0  0  0  0  0  0  0  0  0  0  0  0
    0.0008    1.0000    0.0000 C   0  0  0  0  0  0  0  0  0  0  0  0
    0.8664    0.4994    0.0000 C   0  0  0  0  0  0  0  0  0  0  0  0
    1.7328    0.9986    0.0000 C   0  0  0  0  0  0  0  0  0  0  0  0
    2.5984    0.4980    0.0000 R   0  0  0  0  0  0  0  0  0  0  0  0
    1.7336    1.9986    0.0000 O   0  0  0  0  0  0  0  0  0  0  0  0
    0.8656   -0.5006    0.0000 C   0  0  0  0  0  0  0  0  0  0  0  0
   -0.0008   -1.0000    0.0000 C   0  0  0  0  0  0  0  0  0  0  0  0
  1  2  1  0
  2  3  1  0
  2  4  1  0
  4  5  1  0
  5  6  2  0
  6  7  1  0
  7  8  1  0
  8  9  1  0
  8 10  2  0
  7 11  2  0
 11 12  1  0
 12  4  2  0
M  ISO  2   1   1   9   2
V    1 *
V    9 *
M  END
>  <symbol>  (327) 
NMe4Abz

>  <m_Rgroups>  (327) 
[H],[OH],None,None,None,None

>  <m_abbr>  (327) 
NMe4Abz

>  <m_name>  (327) 
4-(methylamino)benzoic acid

>  <m_type>  (327) 
aa

>  <m_subtype>  (327) 
natural

>  <m_chem_types>  (327) 
1:backbone_n,2:backbone_c

$$$$

     RDKit          2D

  8  7  0  0  0  0  0  0  0  0999 V2000
    1.2980   -1.2510    0.0000 R   0  0  0  0  0  0  0  0  0  0  0  0
    1.2988   -0.2510    0.0000 N   0  0  0  0  0  0  0  0  0  0  0  0
    2.1652    0.2482    0.0000 C   0  0  0  0  0  0  0  0  0  0  0  0
    0.4332    0.2496    0.0000 C   0  0  0  0  0  0  0  0  0  0  0  0
   -0.4332   -0.2496    0.0000 C   0  0  0  0  0  0  0  0  0  0  0  0
   -1.2988    0.2510    0.0000 C   0  0  0  0  0  0  0  0  0  0  0  0
   -2.1652   -0.2482    0.0000 R   0  0  0  0  0  0  0  0  0  0  0  0
   -1.2980    1.2510    0.0000 O   0  0  0  0  0  0  0  0  0  0  0  0
  1  2  1  0
  2  3  1  0
  2  4  1  0
  4  5  1  0
  5  6  1  0
  6  7  1  0
  6  8  2  0
M  ISO  2   1   1   7   2
V    1 *
V    7 *
M  END
>  <symbol>  (328) 
NMebAla

>  <m_Rgroups>  (328) 
[H],[OH],None,None,None,None

>  <m_abbr>  (328) 
NMebAla

>  <m_name>  (328) 
3-(methylamino)propanoic acid

>  <m_type>  (328) 
aa

>  <m_subtype>  (328) 
natural

>  <m_chem_types>  (328) 
1:backbone_n,2:backbone_c

$$$$

     RDKit          2D

 12 12  0  0  0  0  0  0  0  0999 V2000
   -1.2287   -2.2907    0.0000 R   0  0  0  0  0  0  0  0  0  0  0  0
   -1.2279   -1.2907    0.0000 C   0  0  0  0  0  0  0  0  0  0  0  0
   -2.0935   -0.7899    0.0000 O   0  0  0  0  0  0  0  0  0  0  0  0
   -0.3615   -0.7913    0.0000 C   0  0  0  0  0  0  0  0  0  0  0  0
    0.5041   -1.2921    0.0000 C   0  0  0  0  0  0  0  0  0  0  0  0
    1.3705   -0.7927    0.0000 C   0  0  0  0  0  0  0  0  0  0  0  0
    1.3713    0.2073    0.0000 C   0  0  0  0  0  0  0  0  0  0  0  0
    0.5057    0.7079    0.0000 C   0  0  0  0  0  0  0  0  0  0  0  0
    0.5065    1.7079    0.0000 N   0  0  0  0  0  0  0  0  0  0  0  0
    1.3729    2.2073    0.0000 C   0  0  0  0  0  0  0  0  0  0  0  0
   -0.3591    2.2087    0.0000 C   0  0  0  0  0  0  0  0  0  0  0  0
   -0.3607    0.2087    0.0000 C   0  0  0  0  0  0  0  0  0  0  0  0
  1  2  1  0
  2  3  2  0
  2  4  1  0
  4  5  1  0
  5  6  2  0
  6  7  1  0
  7  8  2  0
  8  9  1  0
  9 10  1  0
  9 11  1  0
  8 12  1  0
 12  4  2  0
M  ISO  1   1   2
V    1 *
M  END
>  <symbol>  (329) 
NMe23Abz

>  <m_Rgroups>  (329) 
None,[OH],None,None,None,None

>  <m_abbr>  (329) 
NMe23Abz

>  <m_name>  (329) 
3-(dimethylamino)benzoic acid

>  <m_type>  (329) 
cap

>  <m_subtype>  (329) 
cap

>  <m_chem_types>  (329) 
2:backbone_c

$$$$

     RDKit          2D

 12 12  0  0  0  0  0  0  0  0999 V2000
   -1.7336   -1.9986    0.0000 R   0  0  0  0  0  0  0  0  0  0  0  0
   -1.7328   -0.9986    0.0000 C   0  0  0  0  0  0  0  0  0  0  0  0
   -2.5984   -0.4980    0.0000 O   0  0  0  0  0  0  0  0  0  0  0  0
   -0.8664   -0.4994    0.0000 C   0  0  0  0  0  0  0  0  0  0  0  0
   -0.8656    0.5006    0.0000 C   0  0  0  0  0  0  0  0  0  0  0  0
    0.0008    1.0000    0.0000 C   0  0  0  0  0  0  0  0  0  0  0  0
    0.8664    0.4994    0.0000 C   0  0  0  0  0  0  0  0  0  0  0  0
    1.7328    0.9986    0.0000 N   0  0  0  0  0  0  0  0  0  0  0  0
    1.7336    1.9986    0.0000 C   0  0  0  0  0  0  0  0  0  0  0  0
    2.5984    0.4980    0.0000 C   0  0  0  0  0  0  0  0  0  0  0  0
    0.8656   -0.5006    0.0000 C   0  0  0  0  0  0  0  0  0  0  0  0
   -0.0008   -1.0000    0.0000 C   0  0  0  0  0  0  0  0  0  0  0  0
  1  2  1  0
  2  3  2  0
  2  4  1  0
  4  5  1  0
  5  6  2  0
  6  7  1  0
  7  8  1  0
  8  9  1  0
  8 10  1  0
  7 11  2  0
 11 12  1  0
 12  4  2  0
M  ISO  1   1   2
V    1 *
M  END
>  <symbol>  (330) 
NMe24Abz

>  <m_Rgroups>  (330) 
None,[OH],None,None,None,None

>  <m_abbr>  (330) 
NMe24Abz

>  <m_name>  (330) 
4-(dimethylamino)benzoic acid

>  <m_type>  (330) 
cap

>  <m_subtype>  (330) 
cap

>  <m_chem_types>  (330) 
2:backbone_c

$$$$

     RDKit          2D

 25 26  0  0  0  0  0  0  0  0999 V2000
    5.1756   -0.2747    0.0000 R   0  0  0  0  0  0  0  0  0  0  0  0
    4.3114    0.2287    0.0000 N   0  0  0  0  0  0  0  0  0  0  0  0
    4.3152    1.2287    0.0000 R   0  0  0  0  0  0  0  0  0  0  0  0
    3.4436   -0.2681    0.0000 C   0  0  0  0  0  0  0  0  0  0  0  0
    2.5794    0.2353    0.0000 C   0  0  0  0  0  0  0  0  0  0  0  0
    1.7116   -0.2613    0.0000 N   0  0  0  0  0  0  0  0  0  0  0  0
    1.7076   -1.2613    0.0000 C   0  0  0  0  0  0  0  0  0  0  0  0
    2.5716   -1.7647    0.0000 C   0  0  0  0  0  0  0  0  0  0  0  0
    2.5678   -2.7647    0.0000 R   0  0  0  0  0  0  0  0  0  0  0  0
    3.4396   -1.2681    0.0000 O   0  0  0  0  0  0  0  0  0  0  0  0
    0.8476    0.2419    0.0000 C   0  0  0  0  0  0  0  0  0  0  0  0
    0.8514    1.2419    0.0000 O   0  0  0  0  0  0  0  0  0  0  0  0
   -0.0200   -0.2547    0.0000 C   0  0  0  0  0  0  0  0  0  0  0  0
   -0.8830    0.2481    0.0000 N   0  0  0  0  0  0  0  0  0  0  0  0
   -0.9854    1.2429    0.0000 C   0  0  0  0  0  0  0  0  0  0  0  0
   -1.9624    1.4553    0.0000 N   0  0  0  0  0  0  0  0  0  0  0  0
   -2.4662    0.5905    0.0000 C   0  0  0  0  0  0  0  0  0  0  0  0
   -3.4436    0.3877    0.0000 C   0  0  0  0  0  0  0  0  0  0  0  0
   -4.1106    1.1335    0.0000 N   0  0  0  0  0  0  0  0  0  0  0  0
   -5.0896    0.9295    0.0000 R   0  0  0  0  0  0  0  0  0  0  0  0
   -3.7978    2.0833    0.0000 R   0  0  0  0  0  0  0  0  0  0  0  0
   -3.7592   -0.5625    0.0000 N   0  0  0  0  0  0  0  0  0  0  0  0
   -3.0916   -1.3069    0.0000 C   0  0  0  0  0  0  0  0  0  0  0  0
   -2.1126   -1.1055    0.0000 N   0  0  0  0  0  0  0  0  0  0  0  0
   -1.7992   -0.1537    0.0000 C   0  0  0  0  0  0  0  0  0  0  0  0
  1  2  1  0
  2  3  1  0
  2  4  1  0
  4  5  1  0
  5  6  1  0
  6  7  1  0
  7  8  1  0
  8  9  1  0
  8 10  2  0
  6 11  1  0
 11 12  2  0
 11 13  1  0
 13 14  1  0
 14 15  1  0
 15 16  2  0
 16 17  1  0
 17 18  2  0
 18 19  1  0
 19 20  1  0
 19 21  1  0
 18 22  1  0
 22 23  2  0
 23 24  1  0
 24 25  2  0
 25 14  1  0
 25 17  1  0
M  ISO  5   1   1   3   3   9   2  20   4  21   5
V    1 *
V    3 *
V    9 *
V   20 *
V   21 *
M  END
>  <symbol>  (331) 
pnA

>  <m_Rgroups>  (331) 
[H],[OH],[H],[H],[H],None

>  <m_abbr>  (331) 
pnA

>  <m_name>  (331) 
PNA Adenine

>  <m_type>  (331) 
aa

>  <m_subtype>  (331) 
natural

>  <m_chem_types>  (331) 
1:backbone_n,2:backbone_c,3:backbone_n_mod,4:amine_primary,5:amine_secondary

$$$$

     RDKit          2D

 23 23  0  0  0  0  0  0  0  0999 V2000
    4.7447   -0.4310    0.0000 R   0  0  0  0  0  0  0  0  0  0  0  0
    3.8781    0.0684    0.0000 N   0  0  0  0  0  0  0  0  0  0  0  0
    3.8773    1.0684    0.0000 R   0  0  0  0  0  0  0  0  0  0  0  0
    3.0127   -0.4324    0.0000 C   0  0  0  0  0  0  0  0  0  0  0  0
    2.1461    0.0668    0.0000 C   0  0  0  0  0  0  0  0  0  0  0  0
    1.2807   -0.4340    0.0000 N   0  0  0  0  0  0  0  0  0  0  0  0
    1.2815   -1.4340    0.0000 C   0  0  0  0  0  0  0  0  0  0  0  0
    2.1479   -1.9332    0.0000 C   0  0  0  0  0  0  0  0  0  0  0  0
    2.1487   -2.9332    0.0000 R   0  0  0  0  0  0  0  0  0  0  0  0
    3.0135   -1.4326    0.0000 O   0  0  0  0  0  0  0  0  0  0  0  0
    0.4141    0.0654    0.0000 C   0  0  0  0  0  0  0  0  0  0  0  0
    0.4133    1.0654    0.0000 O   0  0  0  0  0  0  0  0  0  0  0  0
   -0.4513   -0.4352    0.0000 C   0  0  0  0  0  0  0  0  0  0  0  0
   -1.3175    0.0630    0.0000 N   0  0  0  0  0  0  0  0  0  0  0  0
   -1.3183    1.0654    0.0000 C   0  0  0  0  0  0  0  0  0  0  0  0
   -2.1851    1.5626    0.0000 C   0  0  0  0  0  0  0  0  0  0  0  0
   -3.0511    1.0640    0.0000 C   0  0  0  0  0  0  0  0  0  0  0  0
   -3.9173    1.5624    0.0000 N   0  0  0  0  0  0  0  0  0  0  0  0
   -4.7829    1.0618    0.0000 R   0  0  0  0  0  0  0  0  0  0  0  0
   -3.9179    2.5624    0.0000 R   0  0  0  0  0  0  0  0  0  0  0  0
   -3.0505    0.0616    0.0000 N   0  0  0  0  0  0  0  0  0  0  0  0
   -2.1835   -0.4356    0.0000 C   0  0  0  0  0  0  0  0  0  0  0  0
   -2.1827   -1.4366    0.0000 O   0  0  0  0  0  0  0  0  0  0  0  0
  1  2  1  0
  2  3  1  0
  2  4  1  0
  4  5  1  0
  5  6  1  0
  6  7  1  0
  7  8  1  0
  8  9  1  0
  8 10  2  0
  6 11  1  0
 11 12  2  0
 11 13  1  0
 13 14  1  0
 14 15  1  0
 15 16  2  0
 16 17  1  0
 17 18  1  0
 18 19  1  0
 18 20  1  0
 17 21  2  0
 21 22  1  0
 22 23  2  0
 22 14  1  0
M  ISO  5   1   1   3   3   9   2  19   4  20   5
V    1 *
V    3 *
V    9 *
V   19 *
V   20 *
M  END
>  <symbol>  (332) 
pnC

>  <m_Rgroups>  (332) 
[H],[OH],[H],[H],[H],None

>  <m_abbr>  (332) 
pnC

>  <m_name>  (332) 
PNA Cytosine

>  <m_type>  (332) 
aa

>  <m_subtype>  (332) 
natural

>  <m_chem_types>  (332) 
1:backbone_n,2:backbone_c,3:backbone_n_mod,4:amine_primary,5:amine_secondary

$$$$

     RDKit          2D

 27 28  0  0  0  0  0  0  0  0999 V2000
    5.4113    0.1599    0.0000 R   0  0  0  0  0  0  0  0  0  0  0  0
    4.5465    0.6619    0.0000 N   0  0  0  0  0  0  0  0  0  0  0  0
    4.5487    1.6619    0.0000 R   0  0  0  0  0  0  0  0  0  0  0  0
    3.6793    0.1637    0.0000 C   0  0  0  0  0  0  0  0  0  0  0  0
    2.8145    0.6657    0.0000 C   0  0  0  0  0  0  0  0  0  0  0  0
    1.9473    0.1677    0.0000 N   0  0  0  0  0  0  0  0  0  0  0  0
    1.9451   -0.8323    0.0000 C   0  0  0  0  0  0  0  0  0  0  0  0
    2.8099   -1.3343    0.0000 C   0  0  0  0  0  0  0  0  0  0  0  0
    2.8075   -2.3343    0.0000 R   0  0  0  0  0  0  0  0  0  0  0  0
    3.6769   -0.8363    0.0000 O   0  0  0  0  0  0  0  0  0  0  0  0
    1.0827    0.6697    0.0000 C   0  0  0  0  0  0  0  0  0  0  0  0
    1.0849    1.6695    0.0000 O   0  0  0  0  0  0  0  0  0  0  0  0
    0.2157    0.1717    0.0000 C   0  0  0  0  0  0  0  0  0  0  0  0
   -0.6481    0.6731    0.0000 N   0  0  0  0  0  0  0  0  0  0  0  0
   -0.7519    1.6677    0.0000 C   0  0  0  0  0  0  0  0  0  0  0  0
   -1.7293    1.8785    0.0000 N   0  0  0  0  0  0  0  0  0  0  0  0
   -2.2317    1.0129    0.0000 C   0  0  0  0  0  0  0  0  0  0  0  0
   -3.2089    0.8087    0.0000 C   0  0  0  0  0  0  0  0  0  0  0  0
   -3.8767    1.5537    0.0000 O   0  0  0  0  0  0  0  0  0  0  0  0
   -3.5229   -0.1421    0.0000 N   0  0  0  0  0  0  0  0  0  0  0  0
   -4.5007   -0.3471    0.0000 R   0  0  0  0  0  0  0  0  0  0  0  0
   -2.8541   -0.8855    0.0000 C   0  0  0  0  0  0  0  0  0  0  0  0
   -3.1657   -1.8369    0.0000 N   0  0  0  0  0  0  0  0  0  0  0  0
   -2.4983   -2.5815    0.0000 R   0  0  0  0  0  0  0  0  0  0  0  0
   -4.1443   -2.0425    0.0000 R   0  0  0  0  0  0  0  0  0  0  0  0
   -1.8753   -0.6825    0.0000 N   0  0  0  0  0  0  0  0  0  0  0  0
   -1.5635    0.2697    0.0000 C   0  0  0  0  0  0  0  0  0  0  0  0
  1  2  1  0
  2  3  1  0
  2  4  1  0
  4  5  1  0
  5  6  1  0
  6  7  1  0
  7  8  1  0
  8  9  1  0
  8 10  2  0
  6 11  1  0
 11 12  2  0
 11 13  1  0
 13 14  1  0
 14 15  1  0
 15 16  1  0
 16 17  1  0
 17 18  1  0
 18 19  2  0
 18 20  1  0
 20 21  1  0
 20 22  1  0
 22 23  1  0
 23 24  1  0
 23 25  1  0
 22 26  1  0
 26 27  1  0
 27 14  1  0
 27 17  1  0
M  ISO  6   1   1   3   3   9   2  21   5  24   4  25   6
V    1 *
V    3 *
V    9 *
V   21 *
V   24 *
V   25 *
M  END
>  <symbol>  (333) 
pnG

>  <m_Rgroups>  (333) 
[H],[OH],[H],[H],[H],[H]

>  <m_abbr>  (333) 
pnG

>  <m_name>  (333) 
PNA Guanine

>  <m_type>  (333) 
aa

>  <m_subtype>  (333) 
natural

>  <m_chem_types>  (333) 
1:backbone_n,2:backbone_c,3:backbone_n_mod,4:amine_primary,5:amide_nh,6:amine_secondary

$$$$

     RDKit          2D

 23 23  0  0  0  0  0  0  0  0999 V2000
    4.6315   -0.3658    0.0000 R   0  0  0  0  0  0  0  0  0  0  0  0
    3.7651    0.1336    0.0000 N   0  0  0  0  0  0  0  0  0  0  0  0
    3.7643    1.1336    0.0000 R   0  0  0  0  0  0  0  0  0  0  0  0
    2.8995   -0.3672    0.0000 C   0  0  0  0  0  0  0  0  0  0  0  0
    2.0331    0.1320    0.0000 C   0  0  0  0  0  0  0  0  0  0  0  0
    1.1675   -0.3688    0.0000 N   0  0  0  0  0  0  0  0  0  0  0  0
    1.1685   -1.3688    0.0000 C   0  0  0  0  0  0  0  0  0  0  0  0
    2.0349   -1.8680    0.0000 C   0  0  0  0  0  0  0  0  0  0  0  0
    2.0357   -2.8680    0.0000 R   0  0  0  0  0  0  0  0  0  0  0  0
    2.9005   -1.3674    0.0000 O   0  0  0  0  0  0  0  0  0  0  0  0
    0.3011    0.1306    0.0000 C   0  0  0  0  0  0  0  0  0  0  0  0
    0.3003    1.1306    0.0000 O   0  0  0  0  0  0  0  0  0  0  0  0
   -0.5645   -0.3700    0.0000 C   0  0  0  0  0  0  0  0  0  0  0  0
   -1.4305    0.1282    0.0000 N   0  0  0  0  0  0  0  0  0  0  0  0
   -1.4313    1.1306    0.0000 C   0  0  0  0  0  0  0  0  0  0  0  0
   -2.2983    1.6278    0.0000 C   0  0  0  0  0  0  0  0  0  0  0  0
   -2.2991    2.6288    0.0000 C   0  0  0  0  0  0  0  0  0  0  0  0
   -3.1643    1.1292    0.0000 C   0  0  0  0  0  0  0  0  0  0  0  0
   -4.0303    1.6276    0.0000 O   0  0  0  0  0  0  0  0  0  0  0  0
   -3.1635    0.1268    0.0000 N   0  0  0  0  0  0  0  0  0  0  0  0
   -4.0287   -0.3730    0.0000 R   0  0  0  0  0  0  0  0  0  0  0  0
   -2.2965   -0.3704    0.0000 C   0  0  0  0  0  0  0  0  0  0  0  0
   -2.2957   -1.3714    0.0000 O   0  0  0  0  0  0  0  0  0  0  0  0
  1  2  1  0
  2  3  1  0
  2  4  1  0
  4  5  1  0
  5  6  1  0
  6  7  1  0
  7  8  1  0
  8  9  1  0
  8 10  2  0
  6 11  1  0
 11 12  2  0
 11 13  1  0
 13 14  1  0
 14 15  1  0
 15 16  1  0
 16 17  1  0
 16 18  1  0
 18 19  2  0
 18 20  1  0
 20 21  1  0
 20 22  1  0
 22 23  2  0
 22 14  1  0
M  ISO  4   1   1   3   3   9   2  21   4
V    1 *
V    3 *
V    9 *
V   21 *
M  END
>  <symbol>  (334) 
pnT

>  <m_Rgroups>  (334) 
[H],[OH],[H],[H],None,None

>  <m_abbr>  (334) 
pnT

>  <m_name>  (334) 
PNA Thymine

>  <m_type>  (334) 
aa

>  <m_subtype>  (334) 
natural

>  <m_chem_types>  (334) 
1:backbone_n,2:backbone_c,3:backbone_n_mod,4:amide_nh

$$$$

     RDKit          2D

 22 24  0  0  0  0  0  0  0  0999 V2000
   -4.6828    1.7993    0.0000 R   0  0  0  0  0  0  0  0  0  0  0  0
   -3.8174    1.2985    0.0000 N   0  0  0  0  0  0  0  0  0  0  0  0
   -3.8182    0.2985    0.0000 C   0  0  0  0  0  0  0  0  0  0  0  0
   -2.9524   -0.2021    0.0000 C   0  0  0  0  0  0  0  0  0  0  0  0
   -2.0860    0.2971    0.0000 N   0  0  0  0  0  0  0  0  0  0  0  0
   -1.2206   -0.2035    0.0000 C   0  0  0  0  0  0  0  0  0  0  0  0
   -1.2214   -1.2035    0.0000 C   0  0  0  0  0  0  0  0  0  0  0  0
   -0.3556   -1.7041    0.0000 C   0  0  0  0  0  0  0  0  0  0  0  0
    0.5108   -1.2051    0.0000 C   0  0  0  0  0  0  0  0  0  0  0  0
    1.3764   -1.7055    0.0000 C   0  0  0  0  0  0  0  0  0  0  0  0
    2.2428   -1.2063    0.0000 C   0  0  0  0  0  0  0  0  0  0  0  0
    2.2436   -0.2063    0.0000 N   0  0  0  0  0  0  0  0  0  0  0  0
    3.1100    0.2931    0.0000 C   0  0  0  0  0  0  0  0  0  0  0  0
    3.9756   -0.2077    0.0000 C   0  0  0  0  0  0  0  0  0  0  0  0
    4.8420    0.2917    0.0000 R   0  0  0  0  0  0  0  0  0  0  0  0
    3.9748   -1.2077    0.0000 O   0  0  0  0  0  0  0  0  0  0  0  0
    1.3780    0.2943    0.0000 C   0  0  0  0  0  0  0  0  0  0  0  0
    1.3788    1.2943    0.0000 O   0  0  0  0  0  0  0  0  0  0  0  0
    0.5116   -0.2049    0.0000 C   0  0  0  0  0  0  0  0  0  0  0  0
   -0.3540    0.2957    0.0000 C   0  0  0  0  0  0  0  0  0  0  0  0
   -2.0852    1.2971    0.0000 C   0  0  0  0  0  0  0  0  0  0  0  0
   -2.9508    1.7977    0.0000 C   0  0  0  0  0  0  0  0  0  0  0  0
  1  2  1  0
  2  3  1  0
  3  4  1  0
  4  5  1  0
  5  6  1  0
  6  7  1  0
  7  8  2  0
  8  9  1  0
  9 10  1  0
 10 11  2  0
 11 12  1  0
 12 13  1  0
 13 14  1  0
 14 15  1  0
 14 16  2  0
 12 17  1  0
 17 18  2  0
 17 19  1  0
 19 20  1  0
  5 21  1  0
 21 22  1  0
 22  2  1  0
 20  6  2  0
 19  9  2  0
M  ISO  2   1   1  15   2
V    1 *
V   15 *
M  END
>  <symbol>  (335) 
Pqa

>  <m_Rgroups>  (335) 
[H],[OH],None,None,None,None

>  <m_abbr>  (335) 
Pqa

>  <m_name>  (335) 
2-[1-oxo-7-(piperazin-1-yl)-1,2-dihydroisoquinolin-2-yl]acetic acid

>  <m_type>  (335) 
aa

>  <m_subtype>  (335) 
natural

>  <m_chem_types>  (335) 
1:backbone_n,2:backbone_c

$$$$

     RDKit          2D

 12 11  0  0  0  0  0  0  0  0999 V2000
   -1.8009   -0.1433    0.0000 R   0  0  0  0  0  0  0  0  0  0  0  0
   -1.0937    0.5637    0.0000 N   0  0  0  0  0  0  0  0  0  0  0  0
   -1.3523    1.5297    0.0000 R   0  0  0  0  0  0  0  0  0  0  0  0
   -0.1278    0.3047    0.0000 C   0  0  0  0  0  0  0  0  0  0  0  0
   -0.3864    1.2705    0.0000 C   0  0  0  0  0  0  0  0  0  0  0  0
   -0.3868   -0.6613    0.0000 C   0  0  0  0  0  0  0  0  0  0  0  0
    0.3202   -1.3685    0.0000 C   0  0  0  0  0  0  0  0  0  0  0  0
    0.0612   -2.3343    0.0000 C   0  0  0  0  0  0  0  0  0  0  0  0
    1.2862   -1.1099    0.0000 C   0  0  0  0  0  0  0  0  0  0  0  0
    0.8381    0.5633    0.0000 C   0  0  0  0  0  0  0  0  0  0  0  0
    1.5451   -0.1439    0.0000 R   0  0  0  0  0  0  0  0  0  0  0  0
    1.0971    1.5291    0.0000 O   0  0  0  0  0  0  0  0  0  0  0  0
  1  2  1  0
  2  3  1  0
  2  4  1  0
  4  5  1  0
  4  6  1  0
  6  7  1  0
  7  8  1  0
  7  9  1  0
  4 10  1  0
 10 11  1  0
 10 12  2  0
M  ISO  3   1   1   3   3  11   2
V    1 *
V    3 *
V   11 *
M  END
>  <symbol>  (336) 
aMeLeu

>  <m_Rgroups>  (336) 
[H],[OH],[H],None,None,None

>  <m_abbr>  (336) 
aMeLeu

>  <m_name>  (336) 
alpha-methyl-L-leucine

>  <m_type>  (336) 
aa

>  <m_subtype>  (336) 
natural

>  <m_chem_types>  (336) 
1:backbone_n,2:backbone_c,3:backbone_n_mod

$$$$

     RDKit          2D

 13 12  0  0  0  0  0  0  0  0999 V2000
   -4.3303   -0.4196    0.0000 R   0  0  0  0  0  0  0  0  0  0  0  0
   -3.4639    0.0796    0.0000 N   0  0  0  0  0  0  0  0  0  0  0  0
   -3.4631    1.0796    0.0000 R   0  0  0  0  0  0  0  0  0  0  0  0
   -2.5983   -0.4210    0.0000 C   0  0  0  0  0  0  0  0  0  0  0  0
   -1.7319    0.0784    0.0000 C   0  0  0  0  0  0  0  0  0  0  0  0
   -0.8663   -0.4224    0.0000 O   0  0  0  0  0  0  0  0  0  0  0  0
    0.0001    0.0770    0.0000 C   0  0  0  0  0  0  0  0  0  0  0  0
    0.8657   -0.4238    0.0000 C   0  0  0  0  0  0  0  0  0  0  0  0
    1.7321    0.0756    0.0000 O   0  0  0  0  0  0  0  0  0  0  0  0
    2.5977   -0.4252    0.0000 C   0  0  0  0  0  0  0  0  0  0  0  0
    3.4641    0.0742    0.0000 C   0  0  0  0  0  0  0  0  0  0  0  0
    4.3297   -0.4266    0.0000 R   0  0  0  0  0  0  0  0  0  0  0  0
    3.4649    1.0742    0.0000 O   0  0  0  0  0  0  0  0  0  0  0  0
  1  2  1  0
  2  3  1  0
  2  4  1  0
  4  5  1  0
  5  6  1  0
  6  7  1  0
  7  8  1  0
  8  9  1  0
  9 10  1  0
 10 11  1  0
 11 12  1  0
 11 13  2  0
M  ISO  3   1   1   3   3  12   2
V    1 *
V    3 *
V   12 *
M  END
>  <symbol>  (337) 
AEEA

>  <m_Rgroups>  (337) 
[H],[OH],[H],None,None,None

>  <m_abbr>  (337) 
AEEA

>  <m_name>  (337) 
8-amino-3,6-dioxaoctanoic acid

>  <m_type>  (337) 
aa

>  <m_subtype>  (337) 
natural

>  <m_chem_types>  (337) 
1:backbone_n,2:backbone_c,3:backbone_n_mod

$$$$

     RDKit          2D

 22 21  0  0  0  0  0  0  0  0999 V2000
    8.2276   -0.2336    0.0000 R   0  0  0  0  0  0  0  0  0  0  0  0
    7.3606    0.2646    0.0000 C   0  0  0  0  0  0  0  0  0  0  0  0
    7.3586    1.2646    0.0000 O   0  0  0  0  0  0  0  0  0  0  0  0
    6.4956   -0.2370    0.0000 C   0  0  0  0  0  0  0  0  0  0  0  0
    5.6286    0.2612    0.0000 C   0  0  0  0  0  0  0  0  0  0  0  0
    4.7636   -0.2406    0.0000 C   0  0  0  0  0  0  0  0  0  0  0  0
    3.8966    0.2578    0.0000 C   0  0  0  0  0  0  0  0  0  0  0  0
    3.0316   -0.2440    0.0000 C   0  0  0  0  0  0  0  0  0  0  0  0
    2.1646    0.2544    0.0000 C   0  0  0  0  0  0  0  0  0  0  0  0
    1.2996   -0.2474    0.0000 C   0  0  0  0  0  0  0  0  0  0  0  0
    0.4326    0.2508    0.0000 C   0  0  0  0  0  0  0  0  0  0  0  0
   -0.4326   -0.2508    0.0000 C   0  0  0  0  0  0  0  0  0  0  0  0
   -1.2996    0.2474    0.0000 C   0  0  0  0  0  0  0  0  0  0  0  0
   -2.1646   -0.2544    0.0000 C   0  0  0  0  0  0  0  0  0  0  0  0
   -3.0316    0.2440    0.0000 C   0  0  0  0  0  0  0  0  0  0  0  0
   -3.8966   -0.2578    0.0000 C   0  0  0  0  0  0  0  0  0  0  0  0
   -4.7636    0.2406    0.0000 C   0  0  0  0  0  0  0  0  0  0  0  0
   -5.6286   -0.2612    0.0000 C   0  0  0  0  0  0  0  0  0  0  0  0
   -6.4956    0.2370    0.0000 C   0  0  0  0  0  0  0  0  0  0  0  0
   -7.3606   -0.2646    0.0000 C   0  0  0  0  0  0  0  0  0  0  0  0
   -8.2276    0.2336    0.0000 R   0  0  0  0  0  0  0  0  0  0  0  0
   -7.3586   -1.2646    0.0000 O   0  0  0  0  0  0  0  0  0  0  0  0
  1  2  1  0
  2  3  2  0
  2  4  1  0
  4  5  1  0
  5  6  1  0
  6  7  1  0
  7  8  1  0
  8  9  1  0
  9 10  1  0
 10 11  1  0
 11 12  1  0
 12 13  1  0
 13 14  1  0
 14 15  1  0
 15 16  1  0
 16 17  1  0
 17 18  1  0
 18 19  1  0
 19 20  1  0
 20 21  1  0
 20 22  2  0
M  ISO  2   1   2  21   4
V    1 *
V   21 *
M  END
>  <symbol>  (338) 
C18FA

>  <m_Rgroups>  (338) 
None,[OH],None,[OH],None,None

>  <m_abbr>  (338) 
C18FA

>  <m_name>  (338) 
octadecanedioic acid

>  <m_type>  (338) 
cap

>  <m_subtype>  (338) 
cap

>  <m_chem_types>  (338) 
2:backbone_c,4:carboxyl

$$$$

     RDKit          2D

 24 23  0  0  0  0  0  0  0  0999 V2000
    9.0936   -0.2318    0.0000 R   0  0  0  0  0  0  0  0  0  0  0  0
    8.2266    0.2664    0.0000 C   0  0  0  0  0  0  0  0  0  0  0  0
    8.2246    1.2664    0.0000 O   0  0  0  0  0  0  0  0  0  0  0  0
    7.3616   -0.2354    0.0000 C   0  0  0  0  0  0  0  0  0  0  0  0
    6.4946    0.2630    0.0000 C   0  0  0  0  0  0  0  0  0  0  0  0
    5.6296   -0.2388    0.0000 C   0  0  0  0  0  0  0  0  0  0  0  0
    4.7626    0.2594    0.0000 C   0  0  0  0  0  0  0  0  0  0  0  0
    3.8976   -0.2422    0.0000 C   0  0  0  0  0  0  0  0  0  0  0  0
    3.0306    0.2560    0.0000 C   0  0  0  0  0  0  0  0  0  0  0  0
    2.1656   -0.2456    0.0000 C   0  0  0  0  0  0  0  0  0  0  0  0
    1.2986    0.2526    0.0000 C   0  0  0  0  0  0  0  0  0  0  0  0
    0.4336   -0.2492    0.0000 C   0  0  0  0  0  0  0  0  0  0  0  0
   -0.4336    0.2492    0.0000 C   0  0  0  0  0  0  0  0  0  0  0  0
   -1.2986   -0.2526    0.0000 C   0  0  0  0  0  0  0  0  0  0  0  0
   -2.1656    0.2456    0.0000 C   0  0  0  0  0  0  0  0  0  0  0  0
   -3.0306   -0.2560    0.0000 C   0  0  0  0  0  0  0  0  0  0  0  0
   -3.8976    0.2422    0.0000 C   0  0  0  0  0  0  0  0  0  0  0  0
   -4.7626   -0.2594    0.0000 C   0  0  0  0  0  0  0  0  0  0  0  0
   -5.6296    0.2388    0.0000 C   0  0  0  0  0  0  0  0  0  0  0  0
   -6.4946   -0.2630    0.0000 C   0  0  0  0  0  0  0  0  0  0  0  0
   -7.3616    0.2354    0.0000 C   0  0  0  0  0  0  0  0  0  0  0  0
   -8.2266   -0.2664    0.0000 C   0  0  0  0  0  0  0  0  0  0  0  0
   -9.0936    0.2318    0.0000 R   0  0  0  0  0  0  0  0  0  0  0  0
   -8.2246   -1.2664    0.0000 O   0  0  0  0  0  0  0  0  0  0  0  0
  1  2  1  0
  2  3  2  0
  2  4  1  0
  4  5  1  0
  5  6  1  0
  6  7  1  0
  7  8  1  0
  8  9  1  0
  9 10  1  0
 10 11  1  0
 11 12  1  0
 12 13  1  0
 13 14  1  0
 14 15  1  0
 15 16  1  0
 16 17  1  0
 17 18  1  0
 18 19  1  0
 19 20  1  0
 20 21  1  0
 21 22  1  0
 22 23  1  0
 22 24  2  0
M  ISO  2   1   2  23   4
V    1 *
V   23 *
M  END
>  <symbol>  (339) 
C20FA

>  <m_Rgroups>  (339) 
None,[OH],None,[OH],None,None

>  <m_abbr>  (339) 
C20FA

>  <m_name>  (339) 
eicosanedioic acid

>  <m_type>  (339) 
cap

>  <m_subtype>  (339) 
cap

>  <m_chem_types>  (339) 
2:backbone_c,4:carboxyl

$$$$

     RDKit          2D

 14 13  0  0  0  0  0  0  0  0999 V2000
   -0.3919   -1.8660    0.0000 R   0  0  0  0  0  0  0  0  0  0  0  0
   -0.1375   -0.8988    0.0000 N   0  0  0  0  0  0  0  0  0  0  0  0
   -0.8479   -0.1950    0.0000 R   0  0  0  0  0  0  0  0  0  0  0  0
    0.8273   -0.6356    0.0000 C   0  0  0  0  0  0  0  0  0  0  0  0
    0.5729   -1.6028    0.0000 C   0  0  0  0  0  0  0  0  0  0  0  0
    0.5639    0.3290    0.0000 C   0  0  0  0  0  0  0  0  0  0  0  0
   -0.4031    0.5834    0.0000 C   0  0  0  0  0  0  0  0  0  0  0  0
   -0.6663    1.5482    0.0000 C   0  0  0  0  0  0  0  0  0  0  0  0
   -1.6335    1.8024    0.0000 C   0  0  0  0  0  0  0  0  0  0  0  0
   -1.8967    2.7672    0.0000 R   0  0  0  0  0  0  0  0  0  0  0  0
   -2.3373    1.0922    0.0000 C   0  0  0  0  0  0  0  0  0  0  0  0
    1.7943   -0.8900    0.0000 C   0  0  0  0  0  0  0  0  0  0  0  0
    2.0575   -1.8546    0.0000 R   0  0  0  0  0  0  0  0  0  0  0  0
    2.4981   -0.1796    0.0000 O   0  0  0  0  0  0  0  0  0  0  0  0
  1  2  1  0
  2  3  1  0
  2  4  1  0
  4  5  1  6
  4  6  1  0
  6  7  1  0
  7  8  1  0
  8  9  1  0
  9 10  1  0
  9 11  2  0
  4 12  1  0
 12 13  1  0
 12 14  2  0
M  ISO  4   1   1   3   3  10   4  13   2
V    1 *
V    3 *
V   10 *
V   13 *
M  END
>  <symbol>  (340) 
S5

>  <m_Rgroups>  (340) 
[H],[OH],[H],[H],None,None

>  <m_abbr>  (340) 
S5

>  <m_name>  (340) 
(S)-alpha-methyl-alpha-(4-pentenyl)glycine

>  <m_type>  (340) 
aa

>  <m_subtype>  (340) 
natural

>  <m_chem_types>  (340) 
1:backbone_n,2:backbone_c,3:backbone_n_mod,4:terminal_alkene

$$$$

     RDKit          2D

 17 16  0  0  0  0  0  0  0  0999 V2000
    0.2064   -2.7397    0.0000 R   0  0  0  0  0  0  0  0  0  0  0  0
    0.4608   -1.7725    0.0000 N   0  0  0  0  0  0  0  0  0  0  0  0
   -0.2496   -1.0687    0.0000 R   0  0  0  0  0  0  0  0  0  0  0  0
    1.4256   -1.5093    0.0000 C   0  0  0  0  0  0  0  0  0  0  0  0
    1.1712   -2.4763    0.0000 C   0  0  0  0  0  0  0  0  0  0  0  0
    1.1622   -0.5445    0.0000 C   0  0  0  0  0  0  0  0  0  0  0  0
    0.1952   -0.2903    0.0000 C   0  0  0  0  0  0  0  0  0  0  0  0
   -0.0680    0.6745    0.0000 C   0  0  0  0  0  0  0  0  0  0  0  0
   -1.0352    0.9289    0.0000 C   0  0  0  0  0  0  0  0  0  0  0  0
   -1.2984    1.8935    0.0000 C   0  0  0  0  0  0  0  0  0  0  0  0
   -2.2654    2.1479    0.0000 C   0  0  0  0  0  0  0  0  0  0  0  0
   -2.5288    3.1127    0.0000 C   0  0  0  0  0  0  0  0  0  0  0  0
   -3.4958    3.3669    0.0000 R   0  0  0  0  0  0  0  0  0  0  0  0
   -1.8248    3.8229    0.0000 C   0  0  0  0  0  0  0  0  0  0  0  0
    2.3926   -1.7637    0.0000 C   0  0  0  0  0  0  0  0  0  0  0  0
    2.6558   -2.7283    0.0000 R   0  0  0  0  0  0  0  0  0  0  0  0
    3.0964   -1.0533    0.0000 O   0  0  0  0  0  0  0  0  0  0  0  0
  1  2  1  0
  2  3  1  0
  2  4  1  0
  4  5  1  1
  4  6  1  0
  6  7  1  0
  7  8  1  0
  8  9  1  0
  9 10  1  0
 10 11  1  0
 11 12  1  0
 12 13  1  0
 12 14  2  0
  4 15  1  0
 15 16  1  0
 15 17  2  0
M  ISO  4   1   1   3   3  13   4  16   2
V    1 *
V    3 *
V   13 *
V   16 *
M  END
>  <symbol>  (341) 
R8

>  <m_Rgroups>  (341) 
[H],[OH],[H],[H],None,None

>  <m_abbr>  (341) 
R8

>  <m_name>  (341) 
(R)-alpha-methyl-alpha-(7-octenyl)glycine

>  <m_type>  (341) 
aa

>  <m_subtype>  (341) 
natural

>  <m_chem_types>  (341) 
1:backbone_n,2:backbone_c,3:backbone_n_mod,4:terminal_alkene

$$$$

     RDKit          2D

 15 14  0  0  0  0  0  0  0  0999 V2000
   -1.7841   -2.8369    0.0000 R   0  0  0  0  0  0  0  0  0  0  0  0
   -1.7861   -1.8369    0.0000 N   0  0  0  0  0  0  0  0  0  0  0  0
   -2.6531   -1.3387    0.0000 R   0  0  0  0  0  0  0  0  0  0  0  0
   -0.9211   -1.3351    0.0000 C   0  0  0  0  0  0  0  0  0  0  0  0
   -0.9231   -0.3353    0.0000 C   0  0  0  0  0  0  0  0  0  0  0  0
   -0.0581    0.1665    0.0000 C   0  0  0  0  0  0  0  0  0  0  0  0
   -0.0601    1.1665    0.0000 C   0  0  0  0  0  0  0  0  0  0  0  0
    0.8049    1.6683    0.0000 C   0  0  0  0  0  0  0  0  0  0  0  0
    1.6719    1.1699    0.0000 R   0  0  0  0  0  0  0  0  0  0  0  0
    0.8029    2.6681    0.0000 N   0  0  0  0  0  0  0  0  0  0  0  0
    1.6679    3.1699    0.0000 N   0  0  0  0  0  0  0  0  0  0  0  0
    2.5329    3.6717    0.0000 N   0  0  0  0  0  0  0  0  0  0  0  0
   -0.0541   -1.8335    0.0000 C   0  0  0  0  0  0  0  0  0  0  0  0
    0.8109   -1.3317    0.0000 R   0  0  0  0  0  0  0  0  0  0  0  0
   -0.0521   -2.8335    0.0000 O   0  0  0  0  0  0  0  0  0  0  0  0
  1  2  1  0
  2  3  1  0
  2  4  1  0
  4  5  1  1
  5  6  1  0
  6  7  1  0
  7  8  1  0
  8  9  1  0
  8 10  1  0
 10 11  2  0
 11 12  2  0
  4 13  1  0
 13 14  1  0
 13 15  2  0
M  CHG  2  11   1  12  -1
M  ISO  4   1   1   3   3   9   4  14   2
V    1 *
V    3 *
V    9 *
V   14 *
M  END
>  <symbol>  (342) 
AzK

>  <m_Rgroups>  (342) 
[H],[OH],[H],[H],None,None

>  <m_abbr>  (342) 
AzK

>  <m_name>  (342) 
L-epsilon-azidolysine

>  <m_type>  (342) 
aa

>  <m_subtype>  (342) 
natural

>  <m_chem_types>  (342) 
1:backbone_n,2:backbone_c,3:backbone_n_mod,4:azide_alpha_c

$$$$

     RDKit          2D

 13 12  0  0  0  0  0  0  0  0999 V2000
   -3.7540   -0.5823    0.0000 R   0  0  0  0  0  0  0  0  0  0  0  0
   -2.3396   -1.0816    0.0000 N   0  0  0  0  0  0  0  0  0  0  0  0
   -2.0647   -2.5562    0.0000 R   0  0  0  0  0  0  0  0  0  0  0  0
   -1.2000   -0.1063    0.0000 C   0  0  0  0  0  0  0  0  0  0  0  0
    0.2145   -0.6056    0.0000 C   0  0  0  0  0  0  0  0  0  0  0  0
    1.3541    0.3698    0.0000 O   0  0  0  0  0  0  0  0  0  0  0  0
    2.7686   -0.1295    0.0000 P   0  0  0  0  0  0  0  0  0  0  0  0
    3.2679    1.2850    0.0000 R   0  0  0  0  0  0  0  0  0  0  0  0
    2.2693   -1.5440    0.0000 O   0  0  0  0  0  0  0  0  0  0  0  0
    4.1831   -0.6288    0.0000 O   0  0  0  0  0  0  0  0  0  0  0  0
   -1.4748    1.3683    0.0000 C   0  0  0  0  0  0  0  0  0  0  0  0
   -0.3352    2.3436    0.0000 R   0  0  0  0  0  0  0  0  0  0  0  0
   -2.8893    1.8676    0.0000 O   0  0  0  0  0  0  0  0  0  0  0  0
  1  2  1  0
  2  3  1  0
  2  4  1  0
  4  5  1  6
  5  6  1  0
  6  7  1  0
  7  8  1  0
  7  9  2  0
  7 10  1  0
  4 11  1  0
 11 12  1  0
 11 13  2  0
M  ISO  4   1   1   3   3   8   4  12   2
V    1 *
V    3 *
V    8 *
V   12 *
M  END
>  <symbol>  (343) 
pSer

>  <m_Rgroups>  (343) 
[H], [OH], [H], [OH]

>  <m_abbr>  (343) 
pSer

>  <m_name>  (343) 
O-phosphoserine

>  <m_type>  (343) 
aa

>  <m_subtype>  (343) 
natural

>  <m_chem_types>  (343) 
0:backbone_n,1:backbone_c,2:backbone_n_mod

$$$$

     RDKit          2D

 14 13  0  0  0  0  0  0  0  0999 V2000
   -2.9610   -1.9618    0.0000 R   0  0  0  0  0  0  0  0  0  0  0  0
   -1.5375   -1.4887    0.0000 N   0  0  0  0  0  0  0  0  0  0  0  0
   -0.4161   -2.4850    0.0000 R   0  0  0  0  0  0  0  0  0  0  0  0
   -1.2355   -0.0195    0.0000 C   0  0  0  0  0  0  0  0  0  0  0  0
   -2.3569    0.9768    0.0000 C   0  0  0  0  0  0  0  0  0  0  0  0
   -2.0548    2.4460    0.0000 R   0  0  0  0  0  0  0  0  0  0  0  0
   -3.7803    0.5037    0.0000 O   0  0  0  0  0  0  0  0  0  0  0  0
    0.1880    0.4536    0.0000 C   0  0  0  0  0  0  0  0  0  0  0  0
    0.4900    1.9229    0.0000 C   0  0  0  0  0  0  0  0  0  0  0  0
    1.3094   -0.5426    0.0000 O   0  0  0  0  0  0  0  0  0  0  0  0
    2.7328   -0.0696    0.0000 P   0  0  0  0  0  0  0  0  0  0  0  0
    3.2059   -1.4931    0.0000 R   0  0  0  0  0  0  0  0  0  0  0  0
    2.2598    1.3539    0.0000 O   0  0  0  0  0  0  0  0  0  0  0  0
    4.1563    0.4034    0.0000 O   0  0  0  0  0  0  0  0  0  0  0  0
  1  2  1  0
  2  3  1  0
  4  2  1  6
  4  5  1  0
  5  6  1  0
  5  7  2  0
  4  8  1  0
  8  9  1  6
  8 10  1  0
 10 11  1  0
 11 12  1  0
 11 13  2  0
 11 14  1  0
M  ISO  4   1   1   3   3   6   2  12   4
V    1 *
V    3 *
V    6 *
V   12 *
M  END
>  <symbol>  (344) 
pThr

>  <m_Rgroups>  (344) 
[H], [OH], [H], [OH]

>  <m_abbr>  (344) 
pThr

>  <m_name>  (344) 
O-phosphothreonine

>  <m_type>  (344) 
aa

>  <m_subtype>  (344) 
natural

>  <m_chem_types>  (344) 
0:backbone_n,1:backbone_c,2:backbone_n_mod

$$$$

     RDKit          2D

 19 19  0  0  0  0  0  0  0  0999 V2000
   -4.0746    2.1896    0.0000 R   0  0  0  0  0  0  0  0  0  0  0  0
   -2.9144    1.2389    0.0000 N   0  0  0  0  0  0  0  0  0  0  0  0
   -1.5109    1.7684    0.0000 R   0  0  0  0  0  0  0  0  0  0  0  0
   -3.1576   -0.2413    0.0000 C   0  0  0  0  0  0  0  0  0  0  0  0
   -1.9973   -1.1920    0.0000 C   0  0  0  0  0  0  0  0  0  0  0  0
   -0.5939   -0.6625    0.0000 C   0  0  0  0  0  0  0  0  0  0  0  0
   -0.3507    0.8177    0.0000 C   0  0  0  0  0  0  0  0  0  0  0  0
    1.0528    1.3471    0.0000 C   0  0  0  0  0  0  0  0  0  0  0  0
    2.2130    0.3964    0.0000 C   0  0  0  0  0  0  0  0  0  0  0  0
    3.6165    0.9259    0.0000 O   0  0  0  0  0  0  0  0  0  0  0  0
    4.7767   -0.0248    0.0000 P   0  0  0  0  0  0  0  0  0  0  0  0
    5.7274    1.1355    0.0000 R   0  0  0  0  0  0  0  0  0  0  0  0
    3.8261   -1.1850    0.0000 O   0  0  0  0  0  0  0  0  0  0  0  0
    5.9370   -0.9755    0.0000 O   0  0  0  0  0  0  0  0  0  0  0  0
    1.9698   -1.0837    0.0000 C   0  0  0  0  0  0  0  0  0  0  0  0
    0.5664   -1.6132    0.0000 C   0  0  0  0  0  0  0  0  0  0  0  0
   -4.5610   -0.7707    0.0000 C   0  0  0  0  0  0  0  0  0  0  0  0
   -5.7213    0.1800    0.0000 R   0  0  0  0  0  0  0  0  0  0  0  0
   -4.8042   -2.2509    0.0000 O   0  0  0  0  0  0  0  0  0  0  0  0
  1  2  1  0
  2  3  1  0
  2  4  1  0
  4  5  1  1
  5  6  1  0
  6  7  1  0
  7  8  2  0
  8  9  1  0
  9 10  1  0
 10 11  1  0
 11 12  1  0
 11 13  2  0
 11 14  1  0
  9 15  2  0
 15 16  1  0
  4 17  1  0
 17 18  1  0
 17 19  2  0
 16  6  2  0
M  ISO  4   1   1   3   3  12   4  18   2
V    1 *
V    3 *
V   12 *
V   18 *
M  END
>  <symbol>  (345) 
pTyr

>  <m_Rgroups>  (345) 
[H], [OH], [H], [OH]

>  <m_abbr>  (345) 
pTyr

>  <m_name>  (345) 
O-phosphotyrosine

>  <m_type>  (345) 
aa

>  <m_subtype>  (345) 
natural

>  <m_chem_types>  (345) 
0:backbone_n,1:backbone_c,2:backbone_n_mod

$$$$

     RDKit          2D

 11 10  0  0  0  0  0  0  0  0999 V2000
   -1.1775    1.6841    0.0000 R   0  0  0  0  0  0  0  0  0  0  0  0
   -1.1795    0.6841    0.0000 N   0  0  0  0  0  0  0  0  0  0  0  0
   -2.0465    0.1859    0.0000 R   0  0  0  0  0  0  0  0  0  0  0  0
   -0.3145    0.1825    0.0000 C   0  0  0  0  0  0  0  0  0  0  0  0
   -0.3165   -0.8175    0.0000 C   0  0  0  0  0  0  0  0  0  0  0  0
    0.5485   -1.3193    0.0000 N   0  0  0  0  0  0  0  0  0  0  0  0
    0.5465   -2.3193    0.0000 R   0  0  0  0  0  0  0  0  0  0  0  0
    1.4155   -0.8209    0.0000 R   0  0  0  0  0  0  0  0  0  0  0  0
    0.5525    0.6807    0.0000 C   0  0  0  0  0  0  0  0  0  0  0  0
    1.4175    0.1789    0.0000 R   0  0  0  0  0  0  0  0  0  0  0  0
    0.5545    1.6807    0.0000 O   0  0  0  0  0  0  0  0  0  0  0  0
  1  2  1  0
  2  3  1  0
  2  4  1  0
  4  5  1  0
  5  6  1  0
  6  7  1  0
  6  8  1  0
  4  9  1  0
  9 10  1  0
  9 11  2  0
M  ISO  5   1   1   3   3   7   4   8   5  10   2
V    1 *
V    3 *
V    7 *
V    8 *
V   10 *
M  END
>  <symbol>  (346) 
TL3

>  <m_Rgroups>  (346) 
[H],[OH],[H],[H],[H],None

>  <m_abbr>  (346) 
TL3

>  <m_name>  (346) 
Trilinker-3

>  <m_type>  (346) 
aa

>  <m_subtype>  (346) 
modified

>  <m_chem_types>  (346) 
1:backbone_n,2:backbone_c,3:backbone_n_mod,4:amine_primary,5:amine_secondary

$$$$

     RDKit          2D

 16 16  0  0  0  0  0  0  0  0999 V2000
   -2.9401    1.9401    0.0000 R   0  0  0  0  0  0  0  0  0  0  0  0
   -1.6595    1.1590    0.0000 N   0  0  0  0  0  0  0  0  0  0  0  0
   -0.6719    1.8667    0.0000 R   0  0  0  0  0  0  0  0  0  0  0  0
   -1.6957   -0.3405    0.0000 C   0  0  0  0  0  0  0  0  0  0  0  0
   -0.4151   -1.1216    0.0000 C   0  0  0  0  0  0  0  0  0  0  0  0
    0.9017   -0.4031    0.0000 N   0  0  0  0  0  0  0  0  0  0  0  0
    1.0943    1.0845    0.0000 C   0  0  0  0  0  0  0  0  0  0  0  0
    0.3196    2.0204    0.0000 O   0  0  0  0  0  0  0  0  0  0  0  0
    2.5686    1.3609    0.0000 C   0  0  0  0  0  0  0  0  0  0  0  0
    3.2871    0.0442    0.0000 C   0  0  0  0  0  0  0  0  0  0  0  0
    4.7747   -0.1485    0.0000 R   0  0  0  0  0  0  0  0  0  0  0  0
    2.2569   -1.0460    0.0000 C   0  0  0  0  0  0  0  0  0  0  0  0
    2.5333   -2.5203    0.0000 O   0  0  0  0  0  0  0  0  0  0  0  0
   -3.0124   -1.0590    0.0000 C   0  0  0  0  0  0  0  0  0  0  0  0
   -4.2930   -0.2780    0.0000 R   0  0  0  0  0  0  0  0  0  0  0  0
   -3.0485   -2.5586    0.0000 O   0  0  0  0  0  0  0  0  0  0  0  0
  1  2  1  0
  2  3  1  0
  2  4  1  0
  4  5  1  1
  5  6  1  0
  6  7  1  0
  7  8  2  0
  7  9  1  0
  9 10  2  0
 10 11  1  0
 10 12  1  0
 12 13  2  0
  4 14  1  0
 14 15  1  0
 14 16  2  0
 12  6  1  0
M  ISO  4   1   1   3   3  11   4  15   2
V    1 *
V    3 *
V   11 *
V   15 *
M  END
>  <symbol>  (347) 
MalAla

>  <m_Rgroups>  (347) 
[H],[OH],[H],[H]

>  <m_abbr>  (347) 
MalAla

>  <m_name>  (347) 
L-2-amino-3-maleimidopropanoic acid

>  <m_type>  (347) 
aa

>  <m_subtype>  (347) 
modified

>  <m_chem_types>  (347) 
1:backbone_n,2:backbone_c,3:backbone_n_mod,4:maleimide_c

$$$$

     RDKit          2D

 19 19  0  0  0  0  0  0  0  0999 V2000
   -5.3874   -1.7266    0.0000 R   0  0  0  0  0  0  0  0  0  0  0  0
   -3.9575   -1.2732    0.0000 N   0  0  0  0  0  0  0  0  0  0  0  0
   -2.8500   -2.2848    0.0000 R   0  0  0  0  0  0  0  0  0  0  0  0
   -3.6352    0.1917    0.0000 C   0  0  0  0  0  0  0  0  0  0  0  0
   -2.2054    0.6451    0.0000 C   0  0  0  0  0  0  0  0  0  0  0  0
   -1.0978   -0.3665    0.0000 C   0  0  0  0  0  0  0  0  0  0  0  0
    0.3320    0.0869    0.0000 C   0  0  0  0  0  0  0  0  0  0  0  0
    1.4396   -0.9247    0.0000 C   0  0  0  0  0  0  0  0  0  0  0  0
    2.8694   -0.4713    0.0000 N   0  0  0  0  0  0  0  0  0  0  0  0
    4.0766   -1.3616    0.0000 C   0  0  0  0  0  0  0  0  0  0  0  0
    4.0660   -2.8615    0.0000 O   0  0  0  0  0  0  0  0  0  0  0  0
    5.2964   -0.4885    0.0000 C   0  0  0  0  0  0  0  0  0  0  0  0
    4.8430    0.9413    0.0000 C   0  0  0  0  0  0  0  0  0  0  0  0
    5.7333    2.1485    0.0000 R   0  0  0  0  0  0  0  0  0  0  0  0
    3.3430    0.9520    0.0000 C   0  0  0  0  0  0  0  0  0  0  0  0
    2.4700    2.1717    0.0000 O   0  0  0  0  0  0  0  0  0  0  0  0
   -4.7428    1.2033    0.0000 C   0  0  0  0  0  0  0  0  0  0  0  0
   -6.1726    0.7499    0.0000 R   0  0  0  0  0  0  0  0  0  0  0  0
   -4.4205    2.6683    0.0000 O   0  0  0  0  0  0  0  0  0  0  0  0
  1  2  1  0
  2  3  1  0
  2  4  1  0
  4  5  1  6
  5  6  1  0
  6  7  1  0
  7  8  1  0
  8  9  1  0
  9 10  1  0
 10 11  2  0
 10 12  1  0
 12 13  2  0
 13 14  1  0
 13 15  1  0
 15 16  2  0
  4 17  1  0
 17 18  1  0
 17 19  2  0
 15  9  1  0
M  ISO  4   1   1   3   3  14   4  18   2
V    1 *
V    3 *
V   14 *
V   18 *
M  END
>  <symbol>  (348) 
MalLys

>  <m_Rgroups>  (348) 
[H],[OH],[H],[H]

>  <m_abbr>  (348) 
MalLys

>  <m_name>  (348) 
L-6-maleimido-lysine

>  <m_type>  (348) 
aa

>  <m_subtype>  (348) 
modified

>  <m_chem_types>  (348) 
1:backbone_n,2:backbone_c,3:backbone_n_mod,4:maleimide_c

$$$$

     RDKit          2D

 11 10  0  0  0  0  0  0  0  0999 V2000
    1.2112    2.4550    0.0000 R   0  0  0  0  0  0  0  0  0  0  0  0
    0.0773    1.4730    0.0000 N   0  0  0  0  0  0  0  0  0  0  0  0
   -1.3401    1.9640    0.0000 R   0  0  0  0  0  0  0  0  0  0  0  0
    0.3608   -0.0000    0.0000 C   0  0  0  0  0  0  0  0  0  0  0  0
    1.7782   -0.4910    0.0000 C   0  0  0  0  0  0  0  0  0  0  0  0
    2.0616   -1.9640    0.0000 R   0  0  0  0  0  0  0  0  0  0  0  0
    2.9120    0.4910    0.0000 O   0  0  0  0  0  0  0  0  0  0  0  0
   -0.7731   -0.9820    0.0000 C   0  0  0  0  0  0  0  0  0  0  0  0
   -0.4896   -2.4550    0.0000 R   0  0  0  0  0  0  0  0  0  0  0  0
   -2.1905   -0.4910    0.0000 C   0  0  0  0  0  0  0  0  0  0  0  0
   -3.6078    0.0000    0.0000 C   0  0  0  0  0  0  0  0  0  0  0  0
  1  2  1  0
  2  3  1  0
  2  4  1  0
  4  5  1  0
  5  6  1  0
  5  7  2  0
  4  8  1  6
  8  9  1  0
  8 10  1  0
 10 11  3  0
M  ISO  4   1   1   3   3   6   2   9   4
V    1 *
V    3 *
V    6 *
V    9 *
M  END
>  <symbol>  (349) 
Pra

>  <m_Rgroups>  (349) 
[H],[OH],[H],[H]

>  <m_abbr>  (349) 
Pra

>  <m_name>  (349) 
L-propargylglycine

>  <m_type>  (349) 
aa

>  <m_subtype>  (349) 
modified

>  <m_chem_types>  (349) 
1:backbone_n,2:backbone_c,3:backbone_n_mod,4:alkyne_c

$$$$

     RDKit          2D

 12 11  0  0  0  0  0  0  0  0999 V2000
   -3.2194    0.6578    0.0000 R   0  0  0  0  0  0  0  0  0  0  0  0
   -2.2612   -0.4963    0.0000 N   0  0  0  0  0  0  0  0  0  0  0  0
   -2.7816   -1.9032    0.0000 R   0  0  0  0  0  0  0  0  0  0  0  0
   -0.7826   -0.2436    0.0000 C   0  0  0  0  0  0  0  0  0  0  0  0
    0.1755   -1.3977    0.0000 C   0  0  0  0  0  0  0  0  0  0  0  0
    1.6541   -1.1450    0.0000 C   0  0  0  0  0  0  0  0  0  0  0  0
    2.6122   -2.2991    0.0000 R   0  0  0  0  0  0  0  0  0  0  0  0
    2.1745    0.2619    0.0000 C   0  0  0  0  0  0  0  0  0  0  0  0
    2.6949    1.6687    0.0000 C   0  0  0  0  0  0  0  0  0  0  0  0
   -0.2622    1.1632    0.0000 C   0  0  0  0  0  0  0  0  0  0  0  0
    1.2163    1.4160    0.0000 R   0  0  0  0  0  0  0  0  0  0  0  0
   -1.2204    2.3173    0.0000 O   0  0  0  0  0  0  0  0  0  0  0  0
  1  2  1  0
  2  3  1  0
  2  4  1  0
  4  5  1  6
  5  6  1  0
  6  7  1  0
  6  8  1  0
  8  9  3  0
  4 10  1  0
 10 11  1  0
 10 12  2  0
M  ISO  4   1   1   3   3   7   4  11   2
V    1 *
V    3 *
V    7 *
V   11 *
M  END
>  <symbol>  (350) 
Hpg

>  <m_Rgroups>  (350) 
[H],[OH],[H],[H]

>  <m_abbr>  (350) 
Hpg

>  <m_name>  (350) 
L-homopropargylglycine

>  <m_type>  (350) 
aa

>  <m_subtype>  (350) 
modified

>  <m_chem_types>  (350) 
1:backbone_n,2:backbone_c,3:backbone_n_mod,4:alkyne_c

$$$$

     RDKit          2D

 12 11  0  0  0  0  0  0  0  0999 V2000
   -2.5969   -1.8514    0.0000 R   0  0  0  0  0  0  0  0  0  0  0  0
   -1.1525   -1.4469    0.0000 N   0  0  0  0  0  0  0  0  0  0  0  0
   -0.0800   -2.4956    0.0000 R   0  0  0  0  0  0  0  0  0  0  0  0
   -0.7806    0.0062    0.0000 C   0  0  0  0  0  0  0  0  0  0  0  0
   -1.8531    1.0549    0.0000 C   0  0  0  0  0  0  0  0  0  0  0  0
   -1.4812    2.5081    0.0000 R   0  0  0  0  0  0  0  0  0  0  0  0
   -3.2976    0.6504    0.0000 O   0  0  0  0  0  0  0  0  0  0  0  0
    0.6638    0.4107    0.0000 C   0  0  0  0  0  0  0  0  0  0  0  0
    1.0357    1.8639    0.0000 R   0  0  0  0  0  0  0  0  0  0  0  0
    1.7364   -0.6379    0.0000 N   0  0  0  0  0  0  0  0  0  0  0  0
    3.1808   -0.2334    0.0000 N   0  0  0  0  0  0  0  0  0  0  0  0
    4.6252    0.1711    0.0000 N   0  0  0  0  0  0  0  0  0  0  0  0
  1  2  1  0
  2  3  1  0
  2  4  1  0
  4  5  1  0
  5  6  1  0
  5  7  2  0
  4  8  1  6
  8  9  1  0
  8 10  1  0
 10 11  2  0
 11 12  2  0
M  CHG  2  11   1  12  -1
M  ISO  4   1   1   3   3   6   2   9   4
V    1 *
V    3 *
V    6 *
V    9 *
M  END
>  <symbol>  (351) 
AzAla

>  <m_Rgroups>  (351) 
[H],[OH],[H],[H]

>  <m_abbr>  (351) 
AzAla

>  <m_name>  (351) 
L-azidoalanine

>  <m_type>  (351) 
aa

>  <m_subtype>  (351) 
modified

>  <m_chem_types>  (351) 
1:backbone_n,2:backbone_c,3:backbone_n_mod,4:azide_alpha_c

$$$$

     RDKit          2D

 13 12  0  0  0  0  0  0  0  0999 V2000
   -3.6678    0.7870    0.0000 R   0  0  0  0  0  0  0  0  0  0  0  0
   -2.7413   -0.3926    0.0000 N   0  0  0  0  0  0  0  0  0  0  0  0
   -3.2995   -1.7848    0.0000 R   0  0  0  0  0  0  0  0  0  0  0  0
   -1.2564   -0.1799    0.0000 C   0  0  0  0  0  0  0  0  0  0  0  0
   -0.3298   -1.3595    0.0000 C   0  0  0  0  0  0  0  0  0  0  0  0
    1.1550   -1.1469    0.0000 C   0  0  0  0  0  0  0  0  0  0  0  0
    2.0816   -2.3265    0.0000 R   0  0  0  0  0  0  0  0  0  0  0  0
    1.7133    0.2454    0.0000 N   0  0  0  0  0  0  0  0  0  0  0  0
    3.1981    0.4580    0.0000 N   0  0  0  0  0  0  0  0  0  0  0  0
    4.6830    0.6707    0.0000 N   0  0  0  0  0  0  0  0  0  0  0  0
   -0.6981    1.2123    0.0000 C   0  0  0  0  0  0  0  0  0  0  0  0
    0.7867    1.4250    0.0000 R   0  0  0  0  0  0  0  0  0  0  0  0
   -1.6247    2.3919    0.0000 O   0  0  0  0  0  0  0  0  0  0  0  0
  1  2  1  0
  2  3  1  0
  2  4  1  0
  4  5  1  6
  5  6  1  0
  6  7  1  0
  6  8  1  0
  8  9  2  0
  9 10  2  0
  4 11  1  0
 11 12  1  0
 11 13  2  0
M  CHG  2   9   1  10  -1
M  ISO  4   1   1   3   3   7   4  12   2
V    1 *
V    3 *
V    7 *
V   12 *
M  END
>  <symbol>  (352) 
AzHal

>  <m_Rgroups>  (352) 
[H],[OH],[H],[H]

>  <m_abbr>  (352) 
AzHal

>  <m_name>  (352) 
L-azidohomoalanine

>  <m_type>  (352) 
aa

>  <m_subtype>  (352) 
modified

>  <m_chem_types>  (352) 
1:backbone_n,2:backbone_c,3:backbone_n_mod,4:azide_alpha_c

$$$$

     RDKit          2D

 15 15  0  0  0  0  0  0  0  0999 V2000
    2.2445    2.4438    0.0000 R   0  0  0  0  0  0  0  0  0  0  0  0
    1.1200    1.4510    0.0000 N   0  0  0  0  0  0  0  0  0  0  0  0
   -0.3020    1.9284    0.0000 R   0  0  0  0  0  0  0  0  0  0  0  0
    1.4176   -0.0192    0.0000 C   0  0  0  0  0  0  0  0  0  0  0  0
    2.8396   -0.4965    0.0000 C   0  0  0  0  0  0  0  0  0  0  0  0
    3.9641    0.4963    0.0000 R   0  0  0  0  0  0  0  0  0  0  0  0
    3.1372   -1.9667    0.0000 O   0  0  0  0  0  0  0  0  0  0  0  0
    0.2932   -1.0120    0.0000 C   0  0  0  0  0  0  0  0  0  0  0  0
    0.5907   -2.4821    0.0000 R   0  0  0  0  0  0  0  0  0  0  0  0
   -1.1288   -0.5346    0.0000 C   0  0  0  0  0  0  0  0  0  0  0  0
   -2.2533   -1.5274    0.0000 N   0  0  0  0  0  0  0  0  0  0  0  0
   -3.6753   -1.0500    0.0000 N   0  0  0  0  0  0  0  0  0  0  0  0
   -3.9728    0.4202    0.0000 C   0  0  0  0  0  0  0  0  0  0  0  0
   -2.8484    1.4130    0.0000 N   0  0  0  0  0  0  0  0  0  0  0  0
   -1.4264    0.9356    0.0000 N   0  0  0  0  0  0  0  0  0  0  0  0
  1  2  1  0
  2  3  1  0
  2  4  1  0
  4  5  1  0
  5  6  1  0
  5  7  2  0
  4  8  1  6
  8  9  1  0
  8 10  1  0
 10 11  2  0
 11 12  1  0
 12 13  2  0
 13 14  1  0
 14 15  2  0
 15 10  1  0
M  ISO  4   1   1   3   3   6   2   9   4
V    1 *
V    3 *
V    6 *
V    9 *
M  END
>  <symbol>  (353) 
TzAla

>  <m_Rgroups>  (353) 
[H],[OH],[H],[H]

>  <m_abbr>  (353) 
TzAla

>  <m_name>  (353) 
L-tetrazinyl-alanine

>  <m_type>  (353) 
aa

>  <m_subtype>  (353) 
modified

>  <m_chem_types>  (353) 
1:backbone_n,2:backbone_c,3:backbone_n_mod,4:tetrazine_c

$$$$

     RDKit          2D

 19 19  0  0  0  0  0  0  0  0999 V2000
    5.1995    2.2488    0.0000 R   0  0  0  0  0  0  0  0  0  0  0  0
    3.9235    1.4602    0.0000 N   0  0  0  0  0  0  0  0  0  0  0  0
    2.6026    2.1710    0.0000 R   0  0  0  0  0  0  0  0  0  0  0  0
    3.9684   -0.0391    0.0000 C   0  0  0  0  0  0  0  0  0  0  0  0
    2.6924   -0.8277    0.0000 C   0  0  0  0  0  0  0  0  0  0  0  0
    1.3715   -0.1169    0.0000 C   0  0  0  0  0  0  0  0  0  0  0  0
    0.0955   -0.9054    0.0000 C   0  0  0  0  0  0  0  0  0  0  0  0
   -1.2254   -0.1947    0.0000 C   0  0  0  0  0  0  0  0  0  0  0  0
   -2.5014   -0.9832    0.0000 C   0  0  0  0  0  0  0  0  0  0  0  0
   -2.4565   -2.4825    0.0000 R   0  0  0  0  0  0  0  0  0  0  0  0
   -3.8223   -0.2724    0.0000 C   0  0  0  0  0  0  0  0  0  0  0  0
   -5.0983   -1.0610    0.0000 N   0  0  0  0  0  0  0  0  0  0  0  0
   -6.4192   -0.3502    0.0000 N   0  0  0  0  0  0  0  0  0  0  0  0
   -6.4641    1.1491    0.0000 C   0  0  0  0  0  0  0  0  0  0  0  0
   -5.1881    1.9377    0.0000 N   0  0  0  0  0  0  0  0  0  0  0  0
   -3.8672    1.2269    0.0000 N   0  0  0  0  0  0  0  0  0  0  0  0
    5.2893   -0.7499    0.0000 C   0  0  0  0  0  0  0  0  0  0  0  0
    6.5653    0.0386    0.0000 R   0  0  0  0  0  0  0  0  0  0  0  0
    5.3342   -2.2492    0.0000 O   0  0  0  0  0  0  0  0  0  0  0  0
  1  2  1  0
  2  3  1  0
  2  4  1  0
  4  5  1  6
  5  6  1  0
  6  7  1  0
  7  8  1  0
  8  9  1  0
  9 10  1  0
  9 11  1  0
 11 12  2  0
 12 13  1  0
 13 14  2  0
 14 15  1  0
 15 16  2  0
  4 17  1  0
 17 18  1  0
 17 19  2  0
 16 11  1  0
M  ISO  4   1   1   3   3  10   4  18   2
V    1 *
V    3 *
V   10 *
V   18 *
M  END
>  <symbol>  (354) 
TzLys

>  <m_Rgroups>  (354) 
[H],[OH],[H],[H]

>  <m_abbr>  (354) 
TzLys

>  <m_name>  (354) 
L-tetrazinyl-lysine

>  <m_type>  (354) 
aa

>  <m_subtype>  (354) 
modified

>  <m_chem_types>  (354) 
1:backbone_n,2:backbone_c,3:backbone_n_mod,4:tetrazine_c

$$$$

     RDKit          2D

 17 17  0  0  0  0  0  0  0  0999 V2000
    2.6803    2.4595    0.0000 R   0  0  0  0  0  0  0  0  0  0  0  0
    1.5848    1.4349    0.0000 N   0  0  0  0  0  0  0  0  0  0  0  0
    0.1497    1.8713    0.0000 R   0  0  0  0  0  0  0  0  0  0  0  0
    1.9244   -0.0261    0.0000 C   0  0  0  0  0  0  0  0  0  0  0  0
    3.3595   -0.4626    0.0000 C   0  0  0  0  0  0  0  0  0  0  0  0
    4.4550    0.5620    0.0000 R   0  0  0  0  0  0  0  0  0  0  0  0
    3.6991   -1.9236    0.0000 O   0  0  0  0  0  0  0  0  0  0  0  0
    0.8289   -1.0508    0.0000 C   0  0  0  0  0  0  0  0  0  0  0  0
    1.1685   -2.5118    0.0000 R   0  0  0  0  0  0  0  0  0  0  0  0
   -0.6062   -0.6143    0.0000 C   0  0  0  0  0  0  0  0  0  0  0  0
   -1.5586   -1.7732    0.0000 C   0  0  0  0  0  0  0  0  0  0  0  0
   -3.0515   -1.9192    0.0000 C   0  0  0  0  0  0  0  0  0  0  0  0
   -4.2104   -0.9668    0.0000 C   0  0  0  0  0  0  0  0  0  0  0  0
   -4.3563    0.5261    0.0000 C   0  0  0  0  0  0  0  0  0  0  0  0
   -3.4039    1.6850    0.0000 C   0  0  0  0  0  0  0  0  0  0  0  0
   -1.9110    1.8309    0.0000 C   0  0  0  0  0  0  0  0  0  0  0  0
   -0.7522    0.8785    0.0000 C   0  0  0  0  0  0  0  0  0  0  0  0
  1  2  1  0
  2  3  1  0
  2  4  1  0
  4  5  1  0
  5  6  1  0
  5  7  2  0
  4  8  1  6
  8  9  1  0
  8 10  1  0
 10 11  2  3
 11 12  1  0
 12 13  1  0
 13 14  1  0
 14 15  1  0
 15 16  1  0
 16 17  1  0
 17 10  1  0
M  ISO  4   1   1   3   3   6   2   9   4
V    1 *
V    3 *
V    6 *
V    9 *
M  END
>  <symbol>  (355) 
TcoAla

>  <m_Rgroups>  (355) 
[H],[OH],[H],[H]

>  <m_abbr>  (355) 
TcoAla

>  <m_name>  (355) 
L-trans-cyclooctenyl-alanine

>  <m_type>  (355) 
aa

>  <m_subtype>  (355) 
modified

>  <m_chem_types>  (355) 
1:backbone_n,2:backbone_c,3:backbone_n_mod,4:tco_c

$$$$

     RDKit          2D

 20 20  0  0  0  0  0  0  0  0999 V2000
    5.6949   -1.6338    0.0000 R   0  0  0  0  0  0  0  0  0  0  0  0
    4.2675   -1.1730    0.0000 N   0  0  0  0  0  0  0  0  0  0  0  0
    3.1546   -2.1788    0.0000 R   0  0  0  0  0  0  0  0  0  0  0  0
    3.9528    0.2937    0.0000 C   0  0  0  0  0  0  0  0  0  0  0  0
    2.5254    0.7545    0.0000 C   0  0  0  0  0  0  0  0  0  0  0  0
    1.4126   -0.2513    0.0000 C   0  0  0  0  0  0  0  0  0  0  0  0
   -0.0149    0.2096    0.0000 C   0  0  0  0  0  0  0  0  0  0  0  0
   -1.1277   -0.7962    0.0000 C   0  0  0  0  0  0  0  0  0  0  0  0
   -0.8131   -2.2629    0.0000 R   0  0  0  0  0  0  0  0  0  0  0  0
   -2.5552   -0.3354    0.0000 C   0  0  0  0  0  0  0  0  0  0  0  0
   -3.5272   -1.4778    0.0000 C   0  0  0  0  0  0  0  0  0  0  0  0
   -5.0224   -1.5983    0.0000 C   0  0  0  0  0  0  0  0  0  0  0  0
   -6.1648   -0.6263    0.0000 C   0  0  0  0  0  0  0  0  0  0  0  0
   -6.2853    0.8689    0.0000 C   0  0  0  0  0  0  0  0  0  0  0  0
   -5.3133    2.0113    0.0000 C   0  0  0  0  0  0  0  0  0  0  0  0
   -3.8181    2.1318    0.0000 C   0  0  0  0  0  0  0  0  0  0  0  0
   -2.6757    1.1598    0.0000 C   0  0  0  0  0  0  0  0  0  0  0  0
    5.0657    1.2995    0.0000 C   0  0  0  0  0  0  0  0  0  0  0  0
    6.4931    0.8386    0.0000 R   0  0  0  0  0  0  0  0  0  0  0  0
    4.7510    2.7661    0.0000 O   0  0  0  0  0  0  0  0  0  0  0  0
  1  2  1  0
  2  3  1  0
  2  4  1  0
  4  5  1  1
  5  6  1  0
  6  7  1  0
  7  8  1  0
  8  9  1  0
  8 10  1  0
 10 11  2  3
 11 12  1  0
 12 13  1  0
 13 14  1  0
 14 15  1  0
 15 16  1  0
 16 17  1  0
  4 18  1  0
 18 19  1  0
 18 20  2  0
 17 10  1  0
M  ISO  4   1   1   3   3   9   4  19   2
V    1 *
V    3 *
V    9 *
V   19 *
M  END
>  <symbol>  (356) 
TcoLys

>  <m_Rgroups>  (356) 
[H],[OH],[H],[H]

>  <m_abbr>  (356) 
TcoLys

>  <m_name>  (356) 
L-trans-cyclooctenyl-lysine

>  <m_type>  (356) 
aa

>  <m_subtype>  (356) 
modified

>  <m_chem_types>  (356) 
1:backbone_n,2:backbone_c,3:backbone_n_mod,4:tco_c

$$$$

     RDKit          2D

 18 18  0  0  0  0  0  0  0  0999 V2000
   -3.1179    2.4340    0.0000 R   0  0  0  0  0  0  0  0  0  0  0  0
   -2.0209    1.4109    0.0000 N   0  0  0  0  0  0  0  0  0  0  0  0
   -0.5864    1.8495    0.0000 R   0  0  0  0  0  0  0  0  0  0  0  0
   -2.3583   -0.0506    0.0000 C   0  0  0  0  0  0  0  0  0  0  0  0
   -1.2613   -1.0736    0.0000 C   0  0  0  0  0  0  0  0  0  0  0  0
    0.1731   -0.6351    0.0000 C   0  0  0  0  0  0  0  0  0  0  0  0
    0.3169    0.8580    0.0000 C   0  0  0  0  0  0  0  0  0  0  0  0
    1.4744    1.8121    0.0000 C   0  0  0  0  0  0  0  0  0  0  0  0
    2.9675    1.6683    0.0000 C   0  0  0  0  0  0  0  0  0  0  0  0
    3.9216    0.5109    0.0000 C   0  0  0  0  0  0  0  0  0  0  0  0
    5.3560    0.9494    0.0000 R   0  0  0  0  0  0  0  0  0  0  0  0
    3.7778   -0.9822    0.0000 C   0  0  0  0  0  0  0  0  0  0  0  0
    2.6203   -1.9363    0.0000 C   0  0  0  0  0  0  0  0  0  0  0  0
    1.1272   -1.7925    0.0000 C   0  0  0  0  0  0  0  0  0  0  0  0
    0.4230   -3.1169    0.0000 R   0  0  0  0  0  0  0  0  0  0  0  0
   -3.7928   -0.4891    0.0000 C   0  0  0  0  0  0  0  0  0  0  0  0
   -4.8898    0.5339    0.0000 R   0  0  0  0  0  0  0  0  0  0  0  0
   -4.1303   -1.9507    0.0000 O   0  0  0  0  0  0  0  0  0  0  0  0
  1  2  1  0
  2  3  1  0
  2  4  1  0
  4  5  1  1
  5  6  1  0
  6  7  1  0
  7  8  1  0
  8  9  1  0
  9 10  1  0
 10 11  1  0
 10 12  1  0
 12 13  3  0
 13 14  1  0
 14 15  1  0
  4 16  1  0
 16 17  1  0
 16 18  2  0
 14  6  1  0
M  ISO  5   1   1   3   3  11   5  15   4  17   2
V    1 *
V    3 *
V   11 *
V   15 *
V   17 *
M  END
>  <symbol>  (357) 
CyoAla

>  <m_Rgroups>  (357) 
[H], [OH], [H], [H], [H]

>  <m_abbr>  (357) 
CyoAla

>  <m_name>  (357) 
L-cyclooctyn-1-yl-alanine

>  <m_type>  (357) 
aa

>  <m_subtype>  (357) 
modified

>  <m_chem_types>  (357) 
1:backbone_n,2:backbone_c,3:backbone_n_mod,4:cyclooctyne_c,5:cyclooctyne_c

$$$$

     RDKit          2D

 21 21  0  0  0  0  0  0  0  0999 V2000
   -6.1756   -1.6079    0.0000 R   0  0  0  0  0  0  0  0  0  0  0  0
   -4.7436   -1.1616    0.0000 N   0  0  0  0  0  0  0  0  0  0  0  0
   -3.6411   -2.1788    0.0000 R   0  0  0  0  0  0  0  0  0  0  0  0
   -4.4140    0.3017    0.0000 C   0  0  0  0  0  0  0  0  0  0  0  0
   -2.9819    0.7479    0.0000 C   0  0  0  0  0  0  0  0  0  0  0  0
   -1.8794   -0.2692    0.0000 C   0  0  0  0  0  0  0  0  0  0  0  0
   -0.4473    0.1770    0.0000 C   0  0  0  0  0  0  0  0  0  0  0  0
    0.6552   -0.8401    0.0000 C   0  0  0  0  0  0  0  0  0  0  0  0
    2.0873   -0.3939    0.0000 C   0  0  0  0  0  0  0  0  0  0  0  0
    2.2231    1.1000    0.0000 C   0  0  0  0  0  0  0  0  0  0  0  0
    3.3754    2.0603    0.0000 C   0  0  0  0  0  0  0  0  0  0  0  0
    4.8692    1.9245    0.0000 C   0  0  0  0  0  0  0  0  0  0  0  0
    5.8295    0.7722    0.0000 C   0  0  0  0  0  0  0  0  0  0  0  0
    7.2616    1.2184    0.0000 R   0  0  0  0  0  0  0  0  0  0  0  0
    5.6937   -0.7217    0.0000 C   0  0  0  0  0  0  0  0  0  0  0  0
    4.5414   -1.6820    0.0000 C   0  0  0  0  0  0  0  0  0  0  0  0
    3.0476   -1.5462    0.0000 C   0  0  0  0  0  0  0  0  0  0  0  0
    2.3505   -2.8743    0.0000 R   0  0  0  0  0  0  0  0  0  0  0  0
   -5.5164    1.3188    0.0000 C   0  0  0  0  0  0  0  0  0  0  0  0
   -6.9485    0.8726    0.0000 R   0  0  0  0  0  0  0  0  0  0  0  0
   -5.1868    2.7822    0.0000 O   0  0  0  0  0  0  0  0  0  0  0  0
  1  2  1  0
  2  3  1  0
  2  4  1  0
  4  5  1  6
  5  6  1  0
  6  7  1  0
  7  8  1  0
  8  9  1  0
  9 10  1  0
 10 11  1  0
 11 12  1  0
 12 13  1  0
 13 14  1  0
 13 15  1  0
 15 16  3  0
 16 17  1  0
 17 18  1  0
  4 19  1  0
 19 20  1  0
 19 21  2  0
 17  9  1  0
M  ISO  5   1   1   3   3  14   5  18   4  20   2
V    1 *
V    3 *
V   14 *
V   18 *
V   20 *
M  END
>  <symbol>  (358) 
CyoLys

>  <m_Rgroups>  (358) 
[H], [OH], [H], [H], [H]

>  <m_abbr>  (358) 
CyoLys

>  <m_name>  (358) 
L-cyclooctyn-1-yl-lysine

>  <m_type>  (358) 
aa

>  <m_subtype>  (358) 
modified

>  <m_chem_types>  (358) 
1:backbone_n,2:backbone_c,3:backbone_n_mod,4:cyclooctyne_c,5:cyclooctyne_c

$$$$

     RDKit          2D

 11 11  0  0  0  0  0  0  0  0999 V2000
    3.6680    0.0911    0.0000 R   0  0  0  0  0  0  0  0  0  0  0  0
    2.2095    0.4412    0.0000 C   0  0  0  0  0  0  0  0  0  0  0  0
    1.7834    1.8794    0.0000 O   0  0  0  0  0  0  0  0  0  0  0  0
    1.1770   -0.6469    0.0000 C   0  0  0  0  0  0  0  0  0  0  0  0
    1.6031   -2.0851    0.0000 R   0  0  0  0  0  0  0  0  0  0  0  0
   -0.2816   -0.2968    0.0000 C   0  0  0  0  0  0  0  0  0  0  0  0
   -1.3141   -1.3849    0.0000 N   0  0  0  0  0  0  0  0  0  0  0  0
   -2.7726   -1.0347    0.0000 N   0  0  0  0  0  0  0  0  0  0  0  0
   -3.1987    0.4035    0.0000 C   0  0  0  0  0  0  0  0  0  0  0  0
   -2.1662    1.4916    0.0000 N   0  0  0  0  0  0  0  0  0  0  0  0
   -0.7077    1.1415    0.0000 N   0  0  0  0  0  0  0  0  0  0  0  0
  1  2  1  0
  2  3  2  0
  2  4  1  0
  4  5  1  0
  4  6  1  0
  6  7  2  0
  7  8  1  0
  8  9  2  0
  9 10  1  0
 10 11  2  0
 11  6  1  0
M  ISO  2   1   2   5   4
V    1 *
V    5 *
M  END
>  <symbol>  (359) 
Tz

>  <m_Rgroups>  (359) 
None, [OH], None, [H]

>  <m_abbr>  (359) 
Tz

>  <m_name>  (359) 
Tetrazine-acetic acid cap

>  <m_type>  (359) 
cap

>  <m_subtype>  (359) 
cap

>  <m_chem_types>  (359) 
2:backbone_c,4:tetrazine_c

$$$$

     RDKit          2D

 14 14  0  0  0  0  0  0  0  0999 V2000
    4.6185    1.5407    0.0000 R   0  0  0  0  0  0  0  0  0  0  0  0
    3.6543    0.3917    0.0000 C   0  0  0  0  0  0  0  0  0  0  0  0
    4.1672   -1.0178    0.0000 O   0  0  0  0  0  0  0  0  0  0  0  0
    2.1771    0.6524    0.0000 C   0  0  0  0  0  0  0  0  0  0  0  0
    1.2128   -0.4966    0.0000 C   0  0  0  0  0  0  0  0  0  0  0  0
    1.7257   -1.9062    0.0000 R   0  0  0  0  0  0  0  0  0  0  0  0
   -0.2644   -0.2360    0.0000 C   0  0  0  0  0  0  0  0  0  0  0  0
   -1.0705   -1.5010    0.0000 C   0  0  0  0  0  0  0  0  0  0  0  0
   -2.5349   -1.8256    0.0000 C   0  0  0  0  0  0  0  0  0  0  0  0
   -3.8000   -1.0195    0.0000 C   0  0  0  0  0  0  0  0  0  0  0  0
   -4.1245    0.4450    0.0000 C   0  0  0  0  0  0  0  0  0  0  0  0
   -3.3184    1.7100    0.0000 C   0  0  0  0  0  0  0  0  0  0  0  0
   -1.8539    2.0345    0.0000 C   0  0  0  0  0  0  0  0  0  0  0  0
   -0.5889    1.2285    0.0000 C   0  0  0  0  0  0  0  0  0  0  0  0
  1  2  1  0
  2  3  2  0
  2  4  1  0
  4  5  1  0
  5  6  1  0
  5  7  1  0
  7  8  2  3
  8  9  1  0
  9 10  1  0
 10 11  1  0
 11 12  1  0
 12 13  1  0
 13 14  1  0
 14  7  1  0
M  ISO  2   1   2   6   4
V    1 *
V    6 *
M  END
>  <symbol>  (360) 
TCO

>  <m_Rgroups>  (360) 
None, [OH], None, [H]

>  <m_abbr>  (360) 
TCO

>  <m_name>  (360) 
trans-Cyclooctene-propionic acid cap

>  <m_type>  (360) 
cap

>  <m_subtype>  (360) 
cap

>  <m_chem_types>  (360) 
2:backbone_c,4:tco_c

$$$$

     RDKit          2D

 13 13  0  0  0  0  0  0  0  0999 V2000
   -4.3618    1.3150    0.0000 R   0  0  0  0  0  0  0  0  0  0  0  0
   -3.3918    0.1708    0.0000 C   0  0  0  0  0  0  0  0  0  0  0  0
   -3.8977   -1.2413    0.0000 O   0  0  0  0  0  0  0  0  0  0  0  0
   -1.9159    0.4387    0.0000 C   0  0  0  0  0  0  0  0  0  0  0  0
   -0.9460   -0.7055    0.0000 C   0  0  0  0  0  0  0  0  0  0  0  0
    0.5299   -0.4376    0.0000 N   0  0  0  0  0  0  0  0  0  0  0  0
    1.6142   -1.4742    0.0000 C   0  0  0  0  0  0  0  0  0  0  0  0
    1.4129   -2.9606    0.0000 O   0  0  0  0  0  0  0  0  0  0  0  0
    2.9350   -0.7633    0.0000 C   0  0  0  0  0  0  0  0  0  0  0  0
    2.6671    0.7126    0.0000 C   0  0  0  0  0  0  0  0  0  0  0  0
    3.7037    1.7968    0.0000 R   0  0  0  0  0  0  0  0  0  0  0  0
    1.1807    0.9139    0.0000 C   0  0  0  0  0  0  0  0  0  0  0  0
    0.4698    2.2347    0.0000 O   0  0  0  0  0  0  0  0  0  0  0  0
  1  2  1  0
  2  3  2  0
  2  4  1  0
  4  5  1  0
  5  6  1  0
  6  7  1  0
  7  8  2  0
  7  9  1  0
  9 10  2  0
 10 11  1  0
 10 12  1  0
 12 13  2  0
 12  6  1  0
M  ISO  2   1   2  11   4
V    1 *
V   11 *
M  END
>  <symbol>  (361) 
Mal

>  <m_Rgroups>  (361) 
None, [OH], None, [H]

>  <m_abbr>  (361) 
Mal

>  <m_name>  (361) 
Maleimidopropionic acid cap

>  <m_type>  (361) 
cap

>  <m_subtype>  (361) 
cap

>  <m_chem_types>  (361) 
2:backbone_c,4:maleimide_c

$$$$

     RDKit          2D

 11 10  0  0  0  0  0  0  0  0999 V2000
   -3.3018   -0.2248    0.0000 R   0  0  0  0  0  0  0  0  0  0  0  0
   -1.9832   -0.9398    0.0000 N   0  0  0  0  0  0  0  0  0  0  0  0
   -1.9430   -2.4392    0.0000 R   0  0  0  0  0  0  0  0  0  0  0  0
   -0.7047   -0.1553    0.0000 C   0  0  0  0  0  0  0  0  0  0  0  0
    0.6140   -0.8702    0.0000 C   0  0  0  0  0  0  0  0  0  0  0  0
    1.8925   -0.0858    0.0000 O   0  0  0  0  0  0  0  0  0  0  0  0
    3.2111   -0.8007    0.0000 N   0  0  0  0  0  0  0  0  0  0  0  0
    4.4896   -0.0162    0.0000 R   0  0  0  0  0  0  0  0  0  0  0  0
   -0.7448    1.3442    0.0000 C   0  0  0  0  0  0  0  0  0  0  0  0
    0.5337    2.1287    0.0000 R   0  0  0  0  0  0  0  0  0  0  0  0
   -2.0634    2.0592    0.0000 O   0  0  0  0  0  0  0  0  0  0  0  0
  1  2  1  0
  2  3  1  0
  2  4  1  0
  4  5  1  6
  5  6  1  0
  6  7  1  0
  7  8  1  0
  4  9  1  0
  9 10  1  0
  9 11  2  0
M  ISO  4   1   1   3   3   8   4  10   2
V    1 *
V    3 *
V    8 *
V   10 *
M  END
>  <symbol>  (362) 
Aoa

>  <m_Rgroups>  (362) 
[H],[OH],[H],[H],None,None

>  <m_abbr>  (362) 
Aoa

>  <m_name>  (362) 
L-alpha-aminooxyalanine

>  <m_type>  (362) 
aa

>  <m_subtype>  (362) 
modified

>  <m_chem_types>  (362) 
1:backbone_n,2:backbone_c,3:backbone_n_mod,4:aminooxy

$$$$

     RDKit          2D

 17 17  0  0  0  0  0  0  0  0999 V2000
   -3.1584    2.3389    0.0000 R   0  0  0  0  0  0  0  0  0  0  0  0
   -2.1065    1.2696    0.0000 N   0  0  0  0  0  0  0  0  0  0  0  0
   -0.6545    1.6460    0.0000 R   0  0  0  0  0  0  0  0  0  0  0  0
   -2.5066   -0.1760    0.0000 C   0  0  0  0  0  0  0  0  0  0  0  0
   -1.4547   -1.2454    0.0000 C   0  0  0  0  0  0  0  0  0  0  0  0
   -0.0026   -0.8690    0.0000 C   0  0  0  0  0  0  0  0  0  0  0  0
    0.3974    0.5766    0.0000 C   0  0  0  0  0  0  0  0  0  0  0  0
    1.8495    0.9530    0.0000 C   0  0  0  0  0  0  0  0  0  0  0  0
    2.9014   -0.1163    0.0000 C   0  0  0  0  0  0  0  0  0  0  0  0
    4.3534    0.2600    0.0000 C   0  0  0  0  0  0  0  0  0  0  0  0
    5.4054   -0.8093    0.0000 R   0  0  0  0  0  0  0  0  0  0  0  0
    4.7535    1.7057    0.0000 O   0  0  0  0  0  0  0  0  0  0  0  0
    2.5013   -1.5620    0.0000 C   0  0  0  0  0  0  0  0  0  0  0  0
    1.0493   -1.9383    0.0000 C   0  0  0  0  0  0  0  0  0  0  0  0
   -3.9586   -0.5524    0.0000 C   0  0  0  0  0  0  0  0  0  0  0  0
   -5.0106    0.5169    0.0000 R   0  0  0  0  0  0  0  0  0  0  0  0
   -4.3587   -1.9980    0.0000 O   0  0  0  0  0  0  0  0  0  0  0  0
  1  2  1  0
  2  3  1  0
  2  4  1  0
  4  5  1  1
  5  6  1  0
  6  7  1  0
  7  8  2  0
  8  9  1  0
  9 10  1  0
 10 11  1  0
 10 12  2  0
  9 13  2  0
 13 14  1  0
  4 15  1  0
 15 16  1  0
 15 17  2  0
 14  6  2  0
M  ISO  4   1   1   3   3  11   4  16   2
V    1 *
V    3 *
V   11 *
V   16 *
M  END
>  <symbol>  (363) 
Ald

>  <m_Rgroups>  (363) 
[H],[OH],[H],[H],None,None

>  <m_abbr>  (363) 
Ald

>  <m_name>  (363) 
L-4-formylphenylalanine

>  <m_type>  (363) 
aa

>  <m_subtype>  (363) 
modified

>  <m_chem_types>  (363) 
1:backbone_n,2:backbone_c,3:backbone_n_mod,4:aldehyde

$$$$

     RDKit          2D

 12 12  0  0  0  0  0  0  0  0999 V2000
   -3.7979    1.2862    0.0000 R   0  0  0  0  0  0  0  0  0  0  0  0
   -2.8618    0.1141    0.0000 C   0  0  0  0  0  0  0  0  0  0  0  0
   -1.3787    0.3387    0.0000 C   0  0  0  0  0  0  0  0  0  0  0  0
   -0.8317    1.7353    0.0000 C   0  0  0  0  0  0  0  0  0  0  0  0
    0.6514    1.9599    0.0000 C   0  0  0  0  0  0  0  0  0  0  0  0
    1.5874    0.7878    0.0000 C   0  0  0  0  0  0  0  0  0  0  0  0
    3.0705    1.0124    0.0000 O   0  0  0  0  0  0  0  0  0  0  0  0
    4.0066   -0.1597    0.0000 C   0  0  0  0  0  0  0  0  0  0  0  0
    1.0404   -0.6089    0.0000 C   0  0  0  0  0  0  0  0  0  0  0  0
   -0.4427   -0.8334    0.0000 C   0  0  0  0  0  0  0  0  0  0  0  0
   -0.9898   -2.2301    0.0000 O   0  0  0  0  0  0  0  0  0  0  0  0
   -0.0537   -3.4022    0.0000 C   0  0  0  0  0  0  0  0  0  0  0  0
  1  2  1  0
  2  3  1  0
  3  4  1  0
  4  5  2  0
  5  6  1  0
  6  7  1  0
  7  8  1  0
  6  9  2  0
  9 10  1  0
 10 11  1  0
 11 12  1  0
 10  3  2  0
M  ISO  1   1   1
V    1 *
M  END
>  <symbol>  (364) 
Dmb

>  <m_Rgroups>  (364) 
[H],None,None,None,None,None

>  <m_abbr>  (364) 
Dmb

>  <m_name>  (364) 
2,4-Dimethoxybenzyl N-cap

>  <m_type>  (364) 
cap

>  <m_subtype>  (364) 
protecting

>  <m_chem_types>  (364) 
1:carbon

$$$$

     RDKit          2D

 18 18  0  0  0  0  0  0  0  0999 V2000
    0.5590   -2.6752    0.0000 R   0  0  0  0  0  0  0  0  0  0  0  0
    0.5610   -1.6752    0.0000 N   0  0  0  0  0  0  0  0  0  0  0  0
   -0.3040   -1.1734    0.0000 R   0  0  0  0  0  0  0  0  0  0  0  0
    1.4282   -1.1770    0.0000 C   0  0  0  0  0  0  0  0  0  0  0  0
    1.4302   -0.1770    0.0000 C   0  0  0  0  0  0  0  0  0  0  0  0
    0.5652    0.3248    0.0000 C   0  0  0  0  0  0  0  0  0  0  0  0
    0.5670    1.3246    0.0000 C   0  0  0  0  0  0  0  0  0  0  0  0
   -0.2978    1.8266    0.0000 C   0  0  0  0  0  0  0  0  0  0  0  0
   -1.1650    1.3282    0.0000 C   0  0  0  0  0  0  0  0  0  0  0  0
   -2.0298    1.8298    0.0000 C   0  0  0  0  0  0  0  0  0  0  0  0
   -2.5316    0.9648    0.0000 F   0  0  0  0  0  0  0  0  0  0  0  0
   -3.0298    1.8320    0.0000 F   0  0  0  0  0  0  0  0  0  0  0  0
   -2.0278    2.8298    0.0000 F   0  0  0  0  0  0  0  0  0  0  0  0
   -1.1668    0.3282    0.0000 C   0  0  0  0  0  0  0  0  0  0  0  0
   -0.3020   -0.1736    0.0000 C   0  0  0  0  0  0  0  0  0  0  0  0
    2.2932   -1.6786    0.0000 C   0  0  0  0  0  0  0  0  0  0  0  0
    2.2912   -2.6786    0.0000 R   0  0  0  0  0  0  0  0  0  0  0  0
    3.1602   -1.1804    0.0000 O   0  0  0  0  0  0  0  0  0  0  0  0
  1  2  1  0
  2  3  1  0
  2  4  1  0
  4  5  1  1
  5  6  1  0
  6  7  1  0
  7  8  2  0
  8  9  1  0
  9 10  1  0
 10 11  1  0
 10 12  1  0
 10 13  1  0
  9 14  2  0
 14 15  1  0
  4 16  1  0
 16 17  1  0
 16 18  2  0
 15  6  2  0
M  ISO  3   1   1   3   3  17   2
V    1 *
V    3 *
V   17 *
M  END
>  <symbol>  (365) 
Phe_4CF3

>  <m_Rgroups>  (365) 
[H],[OH],[H],None,None,None

>  <m_abbr>  (365) 
Phe_4CF3

>  <m_name>  (365) 
L-4-(Trifluoromethyl)phenylalanine

>  <m_type>  (365) 
aa

>  <m_subtype>  (365) 
modified

>  <m_chem_types>  (365) 
1:backbone_n,2:backbone_c,3:backbone_n_mod

$$$$

     RDKit          2D

 16 16  0  0  0  0  0  0  0  0999 V2000
    0.2618   -2.4696    0.0000 R   0  0  0  0  0  0  0  0  0  0  0  0
    0.2654   -1.4696    0.0000 N   0  0  0  0  0  0  0  0  0  0  0  0
   -0.5988   -0.9666    0.0000 R   0  0  0  0  0  0  0  0  0  0  0  0
    1.1332   -0.9728    0.0000 C   0  0  0  0  0  0  0  0  0  0  0  0
    1.1368    0.0272    0.0000 C   0  0  0  0  0  0  0  0  0  0  0  0
    0.2726    0.5302    0.0000 C   0  0  0  0  0  0  0  0  0  0  0  0
   -0.5952    0.0334    0.0000 C   0  0  0  0  0  0  0  0  0  0  0  0
   -1.4594    0.5366    0.0000 C   0  0  0  0  0  0  0  0  0  0  0  0
   -1.4560    1.5366    0.0000 C   0  0  0  0  0  0  0  0  0  0  0  0
   -2.3200    2.0396    0.0000 C   0  0  0  0  0  0  0  0  0  0  0  0
   -3.1842    2.5426    0.0000 N   0  0  0  0  0  0  0  0  0  0  0  0
   -0.5880    2.0334    0.0000 C   0  0  0  0  0  0  0  0  0  0  0  0
    0.2760    1.5302    0.0000 C   0  0  0  0  0  0  0  0  0  0  0  0
    1.9974   -1.4758    0.0000 C   0  0  0  0  0  0  0  0  0  0  0  0
    1.9938   -2.4758    0.0000 R   0  0  0  0  0  0  0  0  0  0  0  0
    2.8652   -0.9790    0.0000 O   0  0  0  0  0  0  0  0  0  0  0  0
  1  2  1  0
  2  3  1  0
  2  4  1  0
  4  5  1  1
  5  6  1  0
  6  7  1  0
  7  8  2  0
  8  9  1  0
  9 10  1  0
 10 11  3  0
  9 12  2  0
 12 13  1  0
  4 14  1  0
 14 15  1  0
 14 16  2  0
 13  6  2  0
M  ISO  3   1   1   3   3  15   2
V    1 *
V    3 *
V   15 *
M  END
>  <symbol>  (366) 
Phe_4CN

>  <m_Rgroups>  (366) 
[H],[OH],[H],None,None,None

>  <m_abbr>  (366) 
Phe_4CN

>  <m_name>  (366) 
L-4-Cyanophenylalanine

>  <m_type>  (366) 
aa

>  <m_subtype>  (366) 
modified

>  <m_chem_types>  (366) 
1:backbone_n,2:backbone_c,3:backbone_n_mod

$$$$

     RDKit          2D

 16 16  0  0  0  0  0  0  0  0999 V2000
    0.2075   -2.5007    0.0000 R   0  0  0  0  0  0  0  0  0  0  0  0
    0.2111   -1.5007    0.0000 N   0  0  0  0  0  0  0  0  0  0  0  0
   -0.6531   -0.9977    0.0000 R   0  0  0  0  0  0  0  0  0  0  0  0
    1.0789   -1.0039    0.0000 C   0  0  0  0  0  0  0  0  0  0  0  0
    1.0825   -0.0039    0.0000 C   0  0  0  0  0  0  0  0  0  0  0  0
    0.2183    0.4991    0.0000 C   0  0  0  0  0  0  0  0  0  0  0  0
   -0.6495    0.0023    0.0000 C   0  0  0  0  0  0  0  0  0  0  0  0
   -1.5137    0.5055    0.0000 C   0  0  0  0  0  0  0  0  0  0  0  0
   -1.5101    1.5053    0.0000 C   0  0  0  0  0  0  0  0  0  0  0  0
   -2.3743    2.0085    0.0000 O   0  0  0  0  0  0  0  0  0  0  0  0
   -2.3707    3.0085    0.0000 C   0  0  0  0  0  0  0  0  0  0  0  0
   -0.6423    2.0023    0.0000 C   0  0  0  0  0  0  0  0  0  0  0  0
    0.2219    1.4991    0.0000 C   0  0  0  0  0  0  0  0  0  0  0  0
    1.9431   -1.5069    0.0000 C   0  0  0  0  0  0  0  0  0  0  0  0
    1.9395   -2.5069    0.0000 R   0  0  0  0  0  0  0  0  0  0  0  0
    2.8109   -1.0101    0.0000 O   0  0  0  0  0  0  0  0  0  0  0  0
  1  2  1  0
  2  3  1  0
  2  4  1  0
  4  5  1  1
  5  6  1  0
  6  7  1  0
  7  8  2  0
  8  9  1  0
  9 10  1  0
 10 11  1  0
  9 12  2  0
 12 13  1  0
  4 14  1  0
 14 15  1  0
 14 16  2  0
 13  6  2  0
M  ISO  3   1   1   3   3  15   2
V    1 *
V    3 *
V   15 *
M  END
>  <symbol>  (367) 
Phe_4OMe

>  <m_Rgroups>  (367) 
[H],[OH],[H],None,None,None

>  <m_abbr>  (367) 
Phe_4OMe

>  <m_name>  (367) 
L-4-Methoxyphenylalanine

>  <m_type>  (367) 
aa

>  <m_subtype>  (367) 
modified

>  <m_chem_types>  (367) 
1:backbone_n,2:backbone_c,3:backbone_n_mod

$$$$

     RDKit          2D

 16 16  0  0  0  0  0  0  0  0999 V2000
    0.0562   -2.5937    0.0000 R   0  0  0  0  0  0  0  0  0  0  0  0
    0.0554   -1.5937    0.0000 N   0  0  0  0  0  0  0  0  0  0  0  0
   -0.8110   -1.0945    0.0000 R   0  0  0  0  0  0  0  0  0  0  0  0
    0.9210   -1.0931    0.0000 C   0  0  0  0  0  0  0  0  0  0  0  0
    0.9202   -0.0931    0.0000 C   0  0  0  0  0  0  0  0  0  0  0  0
    0.0540    0.4063    0.0000 C   0  0  0  0  0  0  0  0  0  0  0  0
   -0.8118   -0.0943    0.0000 C   0  0  0  0  0  0  0  0  0  0  0  0
   -1.6782    0.4049    0.0000 C   0  0  0  0  0  0  0  0  0  0  0  0
   -1.6790    1.4049    0.0000 C   0  0  0  0  0  0  0  0  0  0  0  0
   -0.8134    1.9055    0.0000 C   0  0  0  0  0  0  0  0  0  0  0  0
   -0.8142    2.9055    0.0000 O   0  0  0  0  0  0  0  0  0  0  0  0
   -1.6806    3.4049    0.0000 C   0  0  0  0  0  0  0  0  0  0  0  0
    0.0532    1.4063    0.0000 C   0  0  0  0  0  0  0  0  0  0  0  0
    1.7874   -1.5923    0.0000 C   0  0  0  0  0  0  0  0  0  0  0  0
    1.7882   -2.5923    0.0000 R   0  0  0  0  0  0  0  0  0  0  0  0
    2.6530   -1.0917    0.0000 O   0  0  0  0  0  0  0  0  0  0  0  0
  1  2  1  0
  2  3  1  0
  2  4  1  0
  4  5  1  1
  5  6  1  0
  6  7  1  0
  7  8  2  0
  8  9  1  0
  9 10  2  0
 10 11  1  0
 11 12  1  0
 10 13  1  0
  4 14  1  0
 14 15  1  0
 14 16  2  0
 13  6  2  0
M  ISO  3   1   1   3   3  15   2
V    1 *
V    3 *
V   15 *
M  END
>  <symbol>  (368) 
Phe_3OMe

>  <m_Rgroups>  (368) 
[H],[OH],[H],None,None,None

>  <m_abbr>  (368) 
Phe_3OMe

>  <m_name>  (368) 
L-3-Methoxyphenylalanine

>  <m_type>  (368) 
aa

>  <m_subtype>  (368) 
modified

>  <m_chem_types>  (368) 
1:backbone_n,2:backbone_c,3:backbone_n_mod

$$$$

     RDKit          2D

 16 16  0  0  0  0  0  0  0  0999 V2000
   -0.2146   -2.5001    0.0000 R   0  0  0  0  0  0  0  0  0  0  0  0
   -0.2154   -1.5001    0.0000 N   0  0  0  0  0  0  0  0  0  0  0  0
   -1.0818   -1.0009    0.0000 R   0  0  0  0  0  0  0  0  0  0  0  0
    0.6502   -0.9995    0.0000 C   0  0  0  0  0  0  0  0  0  0  0  0
    0.6496    0.0005    0.0000 C   0  0  0  0  0  0  0  0  0  0  0  0
   -0.2168    0.4997    0.0000 C   0  0  0  0  0  0  0  0  0  0  0  0
   -1.0824   -0.0007    0.0000 C   0  0  0  0  0  0  0  0  0  0  0  0
   -1.9490    0.4985    0.0000 C   0  0  0  0  0  0  0  0  0  0  0  0
   -1.9498    1.4985    0.0000 C   0  0  0  0  0  0  0  0  0  0  0  0
   -1.0840    1.9991    0.0000 C   0  0  0  0  0  0  0  0  0  0  0  0
   -0.2176    1.4999    0.0000 C   0  0  0  0  0  0  0  0  0  0  0  0
    0.6480    2.0005    0.0000 O   0  0  0  0  0  0  0  0  0  0  0  0
    0.6472    3.0005    0.0000 C   0  0  0  0  0  0  0  0  0  0  0  0
    1.5166   -1.4987    0.0000 C   0  0  0  0  0  0  0  0  0  0  0  0
    1.5174   -2.4987    0.0000 R   0  0  0  0  0  0  0  0  0  0  0  0
    2.3822   -0.9981    0.0000 O   0  0  0  0  0  0  0  0  0  0  0  0
  1  2  1  0
  2  3  1  0
  2  4  1  0
  4  5  1  1
  5  6  1  0
  6  7  2  0
  7  8  1  0
  8  9  2  0
  9 10  1  0
 10 11  2  0
 11 12  1  0
 12 13  1  0
  4 14  1  0
 14 15  1  0
 14 16  2  0
 11  6  1  0
M  ISO  3   1   1   3   3  15   2
V    1 *
V    3 *
V   15 *
M  END
>  <symbol>  (369) 
Phe_2OMe

>  <m_Rgroups>  (369) 
[H],[OH],[H],None,None,None

>  <m_abbr>  (369) 
Phe_2OMe

>  <m_name>  (369) 
L-2-Methoxyphenylalanine

>  <m_type>  (369) 
aa

>  <m_subtype>  (369) 
modified

>  <m_chem_types>  (369) 
1:backbone_n,2:backbone_c,3:backbone_n_mod

$$$$

     RDKit          2D

 15 15  0  0  0  0  0  0  0  0999 V2000
   -0.1714   -2.3002    0.0000 R   0  0  0  0  0  0  0  0  0  0  0  0
   -0.1722   -1.3002    0.0000 N   0  0  0  0  0  0  0  0  0  0  0  0
   -1.0386   -0.8008    0.0000 R   0  0  0  0  0  0  0  0  0  0  0  0
    0.6934   -0.7994    0.0000 C   0  0  0  0  0  0  0  0  0  0  0  0
    0.6926    0.2006    0.0000 C   0  0  0  0  0  0  0  0  0  0  0  0
   -0.1736    0.6998    0.0000 C   0  0  0  0  0  0  0  0  0  0  0  0
   -1.0394    0.1992    0.0000 C   0  0  0  0  0  0  0  0  0  0  0  0
   -1.9058    0.6984    0.0000 C   0  0  0  0  0  0  0  0  0  0  0  0
   -1.9066    1.6986    0.0000 C   0  0  0  0  0  0  0  0  0  0  0  0
   -1.0410    2.1990    0.0000 C   0  0  0  0  0  0  0  0  0  0  0  0
   -0.1744    1.7000    0.0000 C   0  0  0  0  0  0  0  0  0  0  0  0
    0.6910    2.2006    0.0000 Cl  0  0  0  0  0  0  0  0  0  0  0  0
    1.5598   -1.2988    0.0000 C   0  0  0  0  0  0  0  0  0  0  0  0
    1.5606   -2.2988    0.0000 R   0  0  0  0  0  0  0  0  0  0  0  0
    2.4254   -0.7980    0.0000 O   0  0  0  0  0  0  0  0  0  0  0  0
  1  2  1  0
  2  3  1  0
  2  4  1  0
  4  5  1  1
  5  6  1  0
  6  7  2  0
  7  8  1  0
  8  9  2  0
  9 10  1  0
 10 11  2  0
 11 12  1  0
  4 13  1  0
 13 14  1  0
 13 15  2  0
 11  6  1  0
M  ISO  3   1   1   3   3  14   2
V    1 *
V    3 *
V   14 *
M  END
>  <symbol>  (370) 
Phe_2Cl

>  <m_Rgroups>  (370) 
[H],[OH],[H],None,None,None

>  <m_abbr>  (370) 
Phe_2Cl

>  <m_name>  (370) 
L-2-Chlorophenylalanine

>  <m_type>  (370) 
aa

>  <m_subtype>  (370) 
modified

>  <m_chem_types>  (370) 
1:backbone_n,2:backbone_c,3:backbone_n_mod

$$$$

     RDKit          2D

 15 15  0  0  0  0  0  0  0  0999 V2000
   -0.1714   -2.3002    0.0000 R   0  0  0  0  0  0  0  0  0  0  0  0
   -0.1722   -1.3002    0.0000 N   0  0  0  0  0  0  0  0  0  0  0  0
   -1.0386   -0.8008    0.0000 R   0  0  0  0  0  0  0  0  0  0  0  0
    0.6934   -0.7994    0.0000 C   0  0  0  0  0  0  0  0  0  0  0  0
    0.6926    0.2006    0.0000 C   0  0  0  0  0  0  0  0  0  0  0  0
   -0.1736    0.6998    0.0000 C   0  0  0  0  0  0  0  0  0  0  0  0
   -1.0394    0.1992    0.0000 C   0  0  0  0  0  0  0  0  0  0  0  0
   -1.9058    0.6984    0.0000 C   0  0  0  0  0  0  0  0  0  0  0  0
   -1.9066    1.6986    0.0000 C   0  0  0  0  0  0  0  0  0  0  0  0
   -1.0410    2.1990    0.0000 C   0  0  0  0  0  0  0  0  0  0  0  0
   -0.1744    1.7000    0.0000 C   0  0  0  0  0  0  0  0  0  0  0  0
    0.6910    2.2006    0.0000 Br  0  0  0  0  0  0  0  0  0  0  0  0
    1.5598   -1.2988    0.0000 C   0  0  0  0  0  0  0  0  0  0  0  0
    1.5606   -2.2988    0.0000 R   0  0  0  0  0  0  0  0  0  0  0  0
    2.4254   -0.7980    0.0000 O   0  0  0  0  0  0  0  0  0  0  0  0
  1  2  1  0
  2  3  1  0
  2  4  1  0
  4  5  1  1
  5  6  1  0
  6  7  2  0
  7  8  1  0
  8  9  2  0
  9 10  1  0
 10 11  2  0
 11 12  1  0
  4 13  1  0
 13 14  1  0
 13 15  2  0
 11  6  1  0
M  ISO  3   1   1   3   3  14   2
V    1 *
V    3 *
V   14 *
M  END
>  <symbol>  (371) 
Phe_2Br

>  <m_Rgroups>  (371) 
[H],[OH],[H],None,None,None

>  <m_abbr>  (371) 
Phe_2Br

>  <m_name>  (371) 
L-2-Bromophenylalanine

>  <m_type>  (371) 
aa

>  <m_subtype>  (371) 
modified

>  <m_chem_types>  (371) 
1:backbone_n,2:backbone_c,3:backbone_n_mod

$$$$

     RDKit          2D

 15 15  0  0  0  0  0  0  0  0999 V2000
   -0.0559   -2.3667    0.0000 R   0  0  0  0  0  0  0  0  0  0  0  0
   -0.0567   -1.3667    0.0000 N   0  0  0  0  0  0  0  0  0  0  0  0
   -0.9231   -0.8673    0.0000 R   0  0  0  0  0  0  0  0  0  0  0  0
    0.8089   -0.8659    0.0000 C   0  0  0  0  0  0  0  0  0  0  0  0
    0.8081    0.1341    0.0000 C   0  0  0  0  0  0  0  0  0  0  0  0
   -0.0581    0.6333    0.0000 C   0  0  0  0  0  0  0  0  0  0  0  0
   -0.9239    0.1327    0.0000 C   0  0  0  0  0  0  0  0  0  0  0  0
   -1.7903    0.6319    0.0000 C   0  0  0  0  0  0  0  0  0  0  0  0
   -1.7911    1.6319    0.0000 C   0  0  0  0  0  0  0  0  0  0  0  0
   -0.9253    2.1325    0.0000 C   0  0  0  0  0  0  0  0  0  0  0  0
   -0.9261    3.1327    0.0000 Br  0  0  0  0  0  0  0  0  0  0  0  0
   -0.0589    1.6333    0.0000 C   0  0  0  0  0  0  0  0  0  0  0  0
    1.6753   -1.3653    0.0000 C   0  0  0  0  0  0  0  0  0  0  0  0
    1.6761   -2.3653    0.0000 R   0  0  0  0  0  0  0  0  0  0  0  0
    2.5409   -0.8647    0.0000 O   0  0  0  0  0  0  0  0  0  0  0  0
  1  2  1  0
  2  3  1  0
  2  4  1  0
  4  5  1  1
  5  6  1  0
  6  7  2  0
  7  8  1  0
  8  9  2  0
  9 10  1  0
 10 11  1  0
 10 12  2  0
  4 13  1  0
 13 14  1  0
 13 15  2  0
 12  6  1  0
M  ISO  3   1   1   3   3  14   2
V    1 *
V    3 *
V   14 *
M  END
>  <symbol>  (372) 
Phe_3Br

>  <m_Rgroups>  (372) 
[H],[OH],[H],None,None,None

>  <m_abbr>  (372) 
Phe_3Br

>  <m_name>  (372) 
L-3-Bromophenylalanine

>  <m_type>  (372) 
aa

>  <m_subtype>  (372) 
modified

>  <m_chem_types>  (372) 
1:backbone_n,2:backbone_c,3:backbone_n_mod

$$$$

     RDKit          2D

 16 16  0  0  0  0  0  0  0  0999 V2000
    0.1102   -2.5000    0.0000 R   0  0  0  0  0  0  0  0  0  0  0  0
    0.1094   -1.5000    0.0000 N   0  0  0  0  0  0  0  0  0  0  0  0
   -0.7570   -1.0005    0.0000 R   0  0  0  0  0  0  0  0  0  0  0  0
    0.9750   -0.9991    0.0000 C   0  0  0  0  0  0  0  0  0  0  0  0
    0.9742    0.0009    0.0000 C   0  0  0  0  0  0  0  0  0  0  0  0
    0.1080    0.5001    0.0000 C   0  0  0  0  0  0  0  0  0  0  0  0
   -0.7578   -0.0005    0.0000 C   0  0  0  0  0  0  0  0  0  0  0  0
   -1.6242    0.4987    0.0000 C   0  0  0  0  0  0  0  0  0  0  0  0
   -1.6250    1.4986    0.0000 C   0  0  0  0  0  0  0  0  0  0  0  0
   -2.4914    1.9980    0.0000 F   0  0  0  0  0  0  0  0  0  0  0  0
   -0.7594    1.9993    0.0000 C   0  0  0  0  0  0  0  0  0  0  0  0
   -0.7602    2.9994    0.0000 F   0  0  0  0  0  0  0  0  0  0  0  0
    0.1072    1.5000    0.0000 C   0  0  0  0  0  0  0  0  0  0  0  0
    1.8414   -1.4985    0.0000 C   0  0  0  0  0  0  0  0  0  0  0  0
    1.8422   -2.4985    0.0000 R   0  0  0  0  0  0  0  0  0  0  0  0
    2.7070   -0.9977    0.0000 O   0  0  0  0  0  0  0  0  0  0  0  0
  1  2  1  0
  2  3  1  0
  2  4  1  0
  4  5  1  1
  5  6  1  0
  6  7  1  0
  7  8  2  0
  8  9  1  0
  9 10  1  0
  9 11  2  0
 11 12  1  0
 11 13  1  0
  4 14  1  0
 14 15  1  0
 14 16  2  0
 13  6  2  0
M  ISO  3   1   1   3   3  15   2
V    1 *
V    3 *
V   15 *
M  END
>  <symbol>  (373) 
Phe_34diF

>  <m_Rgroups>  (373) 
[H],[OH],[H],None,None,None

>  <m_abbr>  (373) 
Phe_34diF

>  <m_name>  (373) 
L-3,4-Difluorophenylalanine

>  <m_type>  (373) 
aa

>  <m_subtype>  (373) 
modified

>  <m_chem_types>  (373) 
1:backbone_n,2:backbone_c,3:backbone_n_mod

$$$$

     RDKit          2D

 16 16  0  0  0  0  0  0  0  0999 V2000
    0.1102   -2.3750    0.0000 R   0  0  0  0  0  0  0  0  0  0  0  0
    0.1094   -1.3750    0.0000 N   0  0  0  0  0  0  0  0  0  0  0  0
   -0.7570   -0.8755    0.0000 R   0  0  0  0  0  0  0  0  0  0  0  0
    0.9750   -0.8741    0.0000 C   0  0  0  0  0  0  0  0  0  0  0  0
    0.9742    0.1259    0.0000 C   0  0  0  0  0  0  0  0  0  0  0  0
    0.1078    0.6251    0.0000 C   0  0  0  0  0  0  0  0  0  0  0  0
    0.1070    1.6250    0.0000 C   0  0  0  0  0  0  0  0  0  0  0  0
   -0.7594    2.1243    0.0000 C   0  0  0  0  0  0  0  0  0  0  0  0
   -0.7602    3.1244    0.0000 F   0  0  0  0  0  0  0  0  0  0  0  0
   -1.6252    1.6236    0.0000 C   0  0  0  0  0  0  0  0  0  0  0  0
   -1.6244    0.6237    0.0000 C   0  0  0  0  0  0  0  0  0  0  0  0
   -2.4898    0.1231    0.0000 F   0  0  0  0  0  0  0  0  0  0  0  0
   -0.7578    0.1245    0.0000 C   0  0  0  0  0  0  0  0  0  0  0  0
    1.8414   -1.3735    0.0000 C   0  0  0  0  0  0  0  0  0  0  0  0
    1.8422   -2.3735    0.0000 R   0  0  0  0  0  0  0  0  0  0  0  0
    2.7070   -0.8727    0.0000 O   0  0  0  0  0  0  0  0  0  0  0  0
  1  2  1  0
  2  3  1  0
  2  4  1  0
  4  5  1  1
  5  6  1  0
  6  7  2  0
  7  8  1  0
  8  9  1  0
  8 10  2  0
 10 11  1  0
 11 12  1  0
 11 13  2  0
  4 14  1  0
 14 15  1  0
 14 16  2  0
 13  6  1  0
M  ISO  3   1   1   3   3  15   2
V    1 *
V    3 *
V   15 *
M  END
>  <symbol>  (374) 
Phe_35diF

>  <m_Rgroups>  (374) 
[H],[OH],[H],None,None,None

>  <m_abbr>  (374) 
Phe_35diF

>  <m_name>  (374) 
L-3,5-Difluorophenylalanine

>  <m_type>  (374) 
aa

>  <m_subtype>  (374) 
modified

>  <m_chem_types>  (374) 
1:backbone_n,2:backbone_c,3:backbone_n_mod

$$$$

     RDKit          2D

 16 16  0  0  0  0  0  0  0  0999 V2000
   -0.2616   -2.5796    0.0000 R   0  0  0  0  0  0  0  0  0  0  0  0
   -0.3074   -1.5582    0.0000 N   0  0  0  0  0  0  0  0  0  0  0  0
   -1.2334   -1.1248    0.0000 R   0  0  0  0  0  0  0  0  0  0  0  0
    0.6856   -0.9592    0.0000 C   0  0  0  0  0  0  0  0  0  0  0  0
    0.8324    0.2806    0.0000 C   0  0  0  0  0  0  0  0  0  0  0  0
   -0.0052    1.0070    0.0000 C   0  0  0  0  0  0  0  0  0  0  0  0
    0.0178    2.0092    0.0000 C   0  0  0  0  0  0  0  0  0  0  0  0
    0.8926    2.4954    0.0000 F   0  0  0  0  0  0  0  0  0  0  0  0
   -0.8362    2.5336    0.0000 C   0  0  0  0  0  0  0  0  0  0  0  0
   -1.7128    2.0534    0.0000 C   0  0  0  0  0  0  0  0  0  0  0  0
   -1.7366    1.0528    0.0000 C   0  0  0  0  0  0  0  0  0  0  0  0
   -0.8812    0.5322    0.0000 C   0  0  0  0  0  0  0  0  0  0  0  0
   -0.8586   -0.4208    0.0000 F   0  0  0  0  0  0  0  0  0  0  0  0
    1.5322   -1.5664    0.0000 C   0  0  0  0  0  0  0  0  0  0  0  0
    1.4276   -2.5818    0.0000 R   0  0  0  0  0  0  0  0  0  0  0  0
    2.4442   -1.1734    0.0000 O   0  0  0  0  0  0  0  0  0  0  0  0
  1  2  1  0
  2  3  1  0
  2  4  1  0
  4  5  1  1
  5  6  1  0
  6  7  2  0
  7  8  1  0
  7  9  1  0
  9 10  2  0
 10 11  1  0
 11 12  2  0
 12 13  1  0
  4 14  1  0
 14 15  1  0
 14 16  2  0
 12  6  1  0
M  ISO  3   1   1   3   3  15   2
V    1 *
V    3 *
V   15 *
M  END
>  <symbol>  (375) 
Phe_26diF

>  <m_Rgroups>  (375) 
[H],[OH],[H],None,None,None

>  <m_abbr>  (375) 
Phe_26diF

>  <m_name>  (375) 
L-2,6-Difluorophenylalanine

>  <m_type>  (375) 
aa

>  <m_subtype>  (375) 
modified

>  <m_chem_types>  (375) 
1:backbone_n,2:backbone_c,3:backbone_n_mod

$$$$

     RDKit          2D

 16 16  0  0  0  0  0  0  0  0999 V2000
    0.0019   -2.4374    0.0000 R   0  0  0  0  0  0  0  0  0  0  0  0
    0.0011   -1.4374    0.0000 N   0  0  0  0  0  0  0  0  0  0  0  0
   -0.8653   -0.9382    0.0000 R   0  0  0  0  0  0  0  0  0  0  0  0
    0.8667   -0.9368    0.0000 C   0  0  0  0  0  0  0  0  0  0  0  0
    0.8659    0.0632    0.0000 C   0  0  0  0  0  0  0  0  0  0  0  0
   -0.0003    0.5624    0.0000 C   0  0  0  0  0  0  0  0  0  0  0  0
   -0.8661    0.0618    0.0000 C   0  0  0  0  0  0  0  0  0  0  0  0
   -1.7325    0.5610    0.0000 C   0  0  0  0  0  0  0  0  0  0  0  0
   -1.7333    1.5612    0.0000 C   0  0  0  0  0  0  0  0  0  0  0  0
   -2.5997    2.0604    0.0000 F   0  0  0  0  0  0  0  0  0  0  0  0
   -0.8677    2.0618    0.0000 C   0  0  0  0  0  0  0  0  0  0  0  0
   -0.0011    1.5626    0.0000 C   0  0  0  0  0  0  0  0  0  0  0  0
    0.8643    2.0632    0.0000 F   0  0  0  0  0  0  0  0  0  0  0  0
    1.7331   -1.4362    0.0000 C   0  0  0  0  0  0  0  0  0  0  0  0
    1.7339   -2.4362    0.0000 R   0  0  0  0  0  0  0  0  0  0  0  0
    2.5987   -0.9354    0.0000 O   0  0  0  0  0  0  0  0  0  0  0  0
  1  2  1  0
  2  3  1  0
  2  4  1  0
  4  5  1  1
  5  6  1  0
  6  7  1  0
  7  8  2  0
  8  9  1  0
  9 10  1  0
  9 11  2  0
 11 12  1  0
 12 13  1  0
  4 14  1  0
 14 15  1  0
 14 16  2  0
 12  6  2  0
M  ISO  3   1   1   3   3  15   2
V    1 *
V    3 *
V   15 *
M  END
>  <symbol>  (376) 
Phe_24diF

>  <m_Rgroups>  (376) 
[H],[OH],[H],None,None,None

>  <m_abbr>  (376) 
Phe_24diF

>  <m_name>  (376) 
L-2,4-Difluorophenylalanine

>  <m_type>  (376) 
aa

>  <m_subtype>  (376) 
modified

>  <m_chem_types>  (376) 
1:backbone_n,2:backbone_c,3:backbone_n_mod

$$$$

     RDKit          2D

 18 18  0  0  0  0  0  0  0  0999 V2000
    0.5590   -2.6752    0.0000 R   0  0  0  0  0  0  0  0  0  0  0  0
    0.5610   -1.6752    0.0000 N   0  0  0  0  0  0  0  0  0  0  0  0
   -0.3040   -1.1734    0.0000 R   0  0  0  0  0  0  0  0  0  0  0  0
    1.4282   -1.1770    0.0000 C   0  0  0  0  0  0  0  0  0  0  0  0
    1.4302   -0.1770    0.0000 C   0  0  0  0  0  0  0  0  0  0  0  0
    0.5652    0.3248    0.0000 C   0  0  0  0  0  0  0  0  0  0  0  0
    0.5670    1.3246    0.0000 C   0  0  0  0  0  0  0  0  0  0  0  0
   -0.2978    1.8266    0.0000 C   0  0  0  0  0  0  0  0  0  0  0  0
   -1.1650    1.3282    0.0000 C   0  0  0  0  0  0  0  0  0  0  0  0
   -2.0298    1.8298    0.0000 C   0  0  0  0  0  0  0  0  0  0  0  0
   -2.5316    0.9648    0.0000 C   0  0  0  0  0  0  0  0  0  0  0  0
   -3.0298    1.8320    0.0000 C   0  0  0  0  0  0  0  0  0  0  0  0
   -2.0278    2.8298    0.0000 C   0  0  0  0  0  0  0  0  0  0  0  0
   -1.1668    0.3282    0.0000 C   0  0  0  0  0  0  0  0  0  0  0  0
   -0.3020   -0.1736    0.0000 C   0  0  0  0  0  0  0  0  0  0  0  0
    2.2932   -1.6786    0.0000 C   0  0  0  0  0  0  0  0  0  0  0  0
    2.2912   -2.6786    0.0000 R   0  0  0  0  0  0  0  0  0  0  0  0
    3.1602   -1.1804    0.0000 O   0  0  0  0  0  0  0  0  0  0  0  0
  1  2  1  0
  2  3  1  0
  2  4  1  0
  4  5  1  1
  5  6  1  0
  6  7  1  0
  7  8  2  0
  8  9  1  0
  9 10  1  0
 10 11  1  0
 10 12  1  0
 10 13  1  0
  9 14  2  0
 14 15  1  0
  4 16  1  0
 16 17  1  0
 16 18  2  0
 15  6  2  0
M  ISO  3   1   1   3   3  17   2
V    1 *
V    3 *
V   17 *
M  END
>  <symbol>  (377) 
Phe_4tBu

>  <m_Rgroups>  (377) 
[H],[OH],[H],None,None,None

>  <m_abbr>  (377) 
Phe_4tBu

>  <m_name>  (377) 
L-4-tert-Butylphenylalanine

>  <m_type>  (377) 
aa

>  <m_subtype>  (377) 
modified

>  <m_chem_types>  (377) 
1:backbone_n,2:backbone_c,3:backbone_n_mod

$$$$

     RDKit          2D

 19 19  0  0  0  0  0  0  0  0999 V2000
    0.0796   -2.9335    0.0000 R   0  0  0  0  0  0  0  0  0  0  0  0
    0.0254   -1.9109    0.0000 N   0  0  0  0  0  0  0  0  0  0  0  0
   -0.9046   -1.4855    0.0000 R   0  0  0  0  0  0  0  0  0  0  0  0
    1.0120   -1.3041    0.0000 C   0  0  0  0  0  0  0  0  0  0  0  0
    1.1476   -0.0635    0.0000 C   0  0  0  0  0  0  0  0  0  0  0  0
    0.3028    0.6591    0.0000 C   0  0  0  0  0  0  0  0  0  0  0  0
    0.3224    1.6609    0.0000 C   0  0  0  0  0  0  0  0  0  0  0  0
    1.1930    2.1501    0.0000 F   0  0  0  0  0  0  0  0  0  0  0  0
   -0.5372    2.1769    0.0000 C   0  0  0  0  0  0  0  0  0  0  0  0
   -0.5260    3.1781    0.0000 F   0  0  0  0  0  0  0  0  0  0  0  0
   -1.4124    1.6943    0.0000 C   0  0  0  0  0  0  0  0  0  0  0  0
   -2.2730    2.2025    0.0000 F   0  0  0  0  0  0  0  0  0  0  0  0
   -1.4266    0.6941    0.0000 C   0  0  0  0  0  0  0  0  0  0  0  0
   -2.2986    0.2021    0.0000 F   0  0  0  0  0  0  0  0  0  0  0  0
   -0.5690    0.1767    0.0000 C   0  0  0  0  0  0  0  0  0  0  0  0
   -0.5424   -0.7751    0.0000 F   0  0  0  0  0  0  0  0  0  0  0  0
    1.8644   -1.9027    0.0000 C   0  0  0  0  0  0  0  0  0  0  0  0
    1.7710   -2.9191    0.0000 R   0  0  0  0  0  0  0  0  0  0  0  0
    2.7720   -1.4999    0.0000 O   0  0  0  0  0  0  0  0  0  0  0  0
  1  2  1  0
  2  3  1  0
  2  4  1  0
  4  5  1  1
  5  6  1  0
  6  7  2  0
  7  8  1  0
  7  9  1  0
  9 10  1  0
  9 11  2  0
 11 12  1  0
 11 13  1  0
 13 14  1  0
 13 15  2  0
 15 16  1  0
  4 17  1  0
 17 18  1  0
 17 19  2  0
 15  6  1  0
M  ISO  3   1   1   3   3  18   2
V    1 *
V    3 *
V   18 *
M  END
>  <symbol>  (378) 
Phe_F5

>  <m_Rgroups>  (378) 
[H],[OH],[H],None,None,None

>  <m_abbr>  (378) 
Phe_F5

>  <m_name>  (378) 
L-Pentafluorophenylalanine

>  <m_type>  (378) 
aa

>  <m_subtype>  (378) 
modified

>  <m_chem_types>  (378) 
1:backbone_n,2:backbone_c,3:backbone_n_mod

$$$$

     RDKit          2D

 17 17  0  0  0  0  0  0  0  0999 V2000
    0.3982   -2.5896    0.0000 R   0  0  0  0  0  0  0  0  0  0  0  0
    0.4018   -1.5896    0.0000 N   0  0  0  0  0  0  0  0  0  0  0  0
   -0.4624   -1.0866    0.0000 R   0  0  0  0  0  0  0  0  0  0  0  0
    1.2696   -1.0928    0.0000 C   0  0  0  0  0  0  0  0  0  0  0  0
    1.2732   -0.0928    0.0000 C   0  0  0  0  0  0  0  0  0  0  0  0
    0.4090    0.4102    0.0000 C   0  0  0  0  0  0  0  0  0  0  0  0
   -0.4588   -0.0866    0.0000 C   0  0  0  0  0  0  0  0  0  0  0  0
   -1.3230    0.4166    0.0000 C   0  0  0  0  0  0  0  0  0  0  0  0
   -1.3194    1.4164    0.0000 C   0  0  0  0  0  0  0  0  0  0  0  0
   -2.1836    1.9196    0.0000 C   0  0  0  0  0  0  0  0  0  0  0  0
   -2.1800    2.9196    0.0000 C   0  0  0  0  0  0  0  0  0  0  0  0
   -3.0514    1.4226    0.0000 O   0  0  0  0  0  0  0  0  0  0  0  0
   -0.4516    1.9134    0.0000 C   0  0  0  0  0  0  0  0  0  0  0  0
    0.4126    1.4102    0.0000 C   0  0  0  0  0  0  0  0  0  0  0  0
    2.1338   -1.5958    0.0000 C   0  0  0  0  0  0  0  0  0  0  0  0
    2.1302   -2.5958    0.0000 R   0  0  0  0  0  0  0  0  0  0  0  0
    3.0016   -1.0990    0.0000 O   0  0  0  0  0  0  0  0  0  0  0  0
  1  2  1  0
  2  3  1  0
  2  4  1  0
  4  5  1  1
  5  6  1  0
  6  7  1  0
  7  8  2  0
  8  9  1  0
  9 10  1  0
 10 11  1  0
 10 12  2  0
  9 13  2  0
 13 14  1  0
  4 15  1  0
 15 16  1  0
 15 17  2  0
 14  6  2  0
M  ISO  3   1   1   3   3  16   2
V    1 *
V    3 *
V   16 *
M  END
>  <symbol>  (379) 
Phe_4Ac

>  <m_Rgroups>  (379) 
[H],[OH],[H],None,None,None

>  <m_abbr>  (379) 
Phe_4Ac

>  <m_name>  (379) 
L-4-Acetylphenylalanine

>  <m_type>  (379) 
aa

>  <m_subtype>  (379) 
modified

>  <m_chem_types>  (379) 
1:backbone_n,2:backbone_c,3:backbone_n_mod

$$$$

     RDKit          2D

 17 17  0  0  0  0  0  0  0  0999 V2000
   -0.3036   -2.5884    0.0000 R   0  0  0  0  0  0  0  0  0  0  0  0
   -0.3044   -1.5884    0.0000 N   0  0  0  0  0  0  0  0  0  0  0  0
   -1.1708   -1.0892    0.0000 R   0  0  0  0  0  0  0  0  0  0  0  0
    0.5612   -1.0878    0.0000 C   0  0  0  0  0  0  0  0  0  0  0  0
    0.5604   -0.0878    0.0000 C   0  0  0  0  0  0  0  0  0  0  0  0
   -0.3060    0.4116    0.0000 C   0  0  0  0  0  0  0  0  0  0  0  0
   -1.1716   -0.0890    0.0000 C   0  0  0  0  0  0  0  0  0  0  0  0
   -2.0380    0.4102    0.0000 C   0  0  0  0  0  0  0  0  0  0  0  0
   -2.0388    1.4102    0.0000 C   0  0  0  0  0  0  0  0  0  0  0  0
   -1.1732    1.9108    0.0000 C   0  0  0  0  0  0  0  0  0  0  0  0
   -0.3068    1.4116    0.0000 C   0  0  0  0  0  0  0  0  0  0  0  0
    0.5588    1.9122    0.0000 N   0  0  0  0  0  0  0  0  0  0  0  0
    1.4252    1.4130    0.0000 O   0  0  0  0  0  0  0  0  0  0  0  0
    0.5580    2.9122    0.0000 O   0  0  0  0  0  0  0  0  0  0  0  0
    1.4276   -1.5870    0.0000 C   0  0  0  0  0  0  0  0  0  0  0  0
    1.4284   -2.5870    0.0000 R   0  0  0  0  0  0  0  0  0  0  0  0
    2.2932   -1.0864    0.0000 O   0  0  0  0  0  0  0  0  0  0  0  0
  1  2  1  0
  2  3  1  0
  2  4  1  0
  4  5  1  1
  5  6  1  0
  6  7  2  0
  7  8  1  0
  8  9  2  0
  9 10  1  0
 10 11  2  0
 11 12  1  0
 12 13  2  0
 12 14  1  0
  4 15  1  0
 15 16  1  0
 15 17  2  0
 11  6  1  0
M  CHG  2  12   1  14  -1
M  ISO  3   1   1   3   3  16   2
V    1 *
V    3 *
V   16 *
M  END
>  <symbol>  (380) 
Phe_2NO2

>  <m_Rgroups>  (380) 
[H],[OH],[H],None,None,None

>  <m_abbr>  (380) 
Phe_2NO2

>  <m_name>  (380) 
L-2-Nitrophenylalanine

>  <m_type>  (380) 
aa

>  <m_subtype>  (380) 
modified

>  <m_chem_types>  (380) 
1:backbone_n,2:backbone_c,3:backbone_n_mod

$$$$

     RDKit          2D

 17 17  0  0  0  0  0  0  0  0999 V2000
    0.0532   -2.7940    0.0000 R   0  0  0  0  0  0  0  0  0  0  0  0
    0.0524   -1.7940    0.0000 N   0  0  0  0  0  0  0  0  0  0  0  0
   -0.8140   -1.2948    0.0000 R   0  0  0  0  0  0  0  0  0  0  0  0
    0.9180   -1.2934    0.0000 C   0  0  0  0  0  0  0  0  0  0  0  0
    0.9172   -0.2934    0.0000 C   0  0  0  0  0  0  0  0  0  0  0  0
    0.0510    0.2060    0.0000 C   0  0  0  0  0  0  0  0  0  0  0  0
   -0.8148   -0.2946    0.0000 C   0  0  0  0  0  0  0  0  0  0  0  0
   -1.6812    0.2046    0.0000 C   0  0  0  0  0  0  0  0  0  0  0  0
   -1.6820    1.2046    0.0000 C   0  0  0  0  0  0  0  0  0  0  0  0
   -0.8164    1.7052    0.0000 C   0  0  0  0  0  0  0  0  0  0  0  0
   -0.8172    2.7052    0.0000 N   0  0  0  0  0  0  0  0  0  0  0  0
    0.0484    3.2060    0.0000 O   0  0  0  0  0  0  0  0  0  0  0  0
   -1.6836    3.2046    0.0000 O   0  0  0  0  0  0  0  0  0  0  0  0
    0.0502    1.2060    0.0000 C   0  0  0  0  0  0  0  0  0  0  0  0
    1.7844   -1.7926    0.0000 C   0  0  0  0  0  0  0  0  0  0  0  0
    1.7852   -2.7926    0.0000 R   0  0  0  0  0  0  0  0  0  0  0  0
    2.6500   -1.2920    0.0000 O   0  0  0  0  0  0  0  0  0  0  0  0
  1  2  1  0
  2  3  1  0
  2  4  1  0
  4  5  1  1
  5  6  1  0
  6  7  1  0
  7  8  2  0
  8  9  1  0
  9 10  2  0
 10 11  1  0
 11 12  2  0
 11 13  1  0
 10 14  1  0
  4 15  1  0
 15 16  1  0
 15 17  2  0
 14  6  2  0
M  CHG  2  11   1  13  -1
M  ISO  3   1   1   3   3  16   2
V    1 *
V    3 *
V   16 *
M  END
>  <symbol>  (381) 
Phe_3NO2

>  <m_Rgroups>  (381) 
[H],[OH],[H],None,None,None

>  <m_abbr>  (381) 
Phe_3NO2

>  <m_name>  (381) 
L-3-Nitrophenylalanine

>  <m_type>  (381) 
aa

>  <m_subtype>  (381) 
modified

>  <m_chem_types>  (381) 
1:backbone_n,2:backbone_c,3:backbone_n_mod

$$$$

     RDKit          2D

 16 16  0  0  0  0  0  0  0  0999 V2000
    0.0562   -2.5937    0.0000 R   0  0  0  0  0  0  0  0  0  0  0  0
    0.0554   -1.5937    0.0000 N   0  0  0  0  0  0  0  0  0  0  0  0
   -0.8110   -1.0945    0.0000 R   0  0  0  0  0  0  0  0  0  0  0  0
    0.9210   -1.0931    0.0000 C   0  0  0  0  0  0  0  0  0  0  0  0
    0.9202   -0.0931    0.0000 C   0  0  0  0  0  0  0  0  0  0  0  0
    0.0540    0.4063    0.0000 C   0  0  0  0  0  0  0  0  0  0  0  0
   -0.8118   -0.0943    0.0000 C   0  0  0  0  0  0  0  0  0  0  0  0
   -1.6782    0.4049    0.0000 C   0  0  0  0  0  0  0  0  0  0  0  0
   -1.6790    1.4049    0.0000 C   0  0  0  0  0  0  0  0  0  0  0  0
   -0.8134    1.9055    0.0000 C   0  0  0  0  0  0  0  0  0  0  0  0
   -0.8142    2.9055    0.0000 O   0  0  0  0  0  0  0  0  0  0  0  0
   -1.6806    3.4049    0.0000 R   0  0  0  0  0  0  0  0  0  0  0  0
    0.0532    1.4063    0.0000 C   0  0  0  0  0  0  0  0  0  0  0  0
    1.7874   -1.5923    0.0000 C   0  0  0  0  0  0  0  0  0  0  0  0
    1.7882   -2.5923    0.0000 R   0  0  0  0  0  0  0  0  0  0  0  0
    2.6530   -1.0917    0.0000 O   0  0  0  0  0  0  0  0  0  0  0  0
  1  2  1  0
  2  3  1  0
  2  4  1  0
  4  5  1  1
  5  6  1  0
  6  7  1  0
  7  8  2  0
  8  9  1  0
  9 10  2  0
 10 11  1  0
 11 12  1  0
 10 13  1  0
  4 14  1  0
 14 15  1  0
 14 16  2  0
 13  6  2  0
M  ISO  4   1   1   3   3  12   4  15   2
V    1 *
V    3 *
V   12 *
V   15 *
M  END
>  <symbol>  (382) 
Phe_3OH

>  <m_Rgroups>  (382) 
[H],[OH],[H],[H],None,None

>  <m_abbr>  (382) 
Phe_3OH

>  <m_name>  (382) 
L-3-Hydroxyphenylalanine

>  <m_type>  (382) 
aa

>  <m_subtype>  (382) 
modified

>  <m_chem_types>  (382) 
1:backbone_n,2:backbone_c,3:backbone_n_mod,4:hydroxyl_phenolic

$$$$

     RDKit          2D

 15 15  0  0  0  0  0  0  0  0999 V2000
   -1.2600   -2.8045    0.0000 R   0  0  0  0  0  0  0  0  0  0  0  0
   -1.2636   -1.8045    0.0000 N   0  0  0  0  0  0  0  0  0  0  0  0
   -2.1314   -1.3075    0.0000 R   0  0  0  0  0  0  0  0  0  0  0  0
   -0.3994   -1.3013    0.0000 C   0  0  0  0  0  0  0  0  0  0  0  0
   -0.4030   -0.3015    0.0000 C   0  0  0  0  0  0  0  0  0  0  0  0
    0.4612    0.2017    0.0000 C   0  0  0  0  0  0  0  0  0  0  0  0
    0.4576    1.2015    0.0000 C   0  0  0  0  0  0  0  0  0  0  0  0
   -0.4104    1.6985    0.0000 C   0  0  0  0  0  0  0  0  0  0  0  0
   -0.4138    2.6985    0.0000 C   0  0  0  0  0  0  0  0  0  0  0  0
    0.4504    3.2017    0.0000 C   0  0  0  0  0  0  0  0  0  0  0  0
    1.3182    2.7047    0.0000 C   0  0  0  0  0  0  0  0  0  0  0  0
    1.3216    1.7047    0.0000 C   0  0  0  0  0  0  0  0  0  0  0  0
    0.4684   -1.7983    0.0000 C   0  0  0  0  0  0  0  0  0  0  0  0
    0.4720   -2.7983    0.0000 R   0  0  0  0  0  0  0  0  0  0  0  0
    1.3326   -1.2951    0.0000 O   0  0  0  0  0  0  0  0  0  0  0  0
  1  2  1  0
  2  3  1  0
  2  4  1  0
  4  5  1  1
  5  6  1  0
  6  7  1  0
  7  8  2  0
  8  9  1  0
  9 10  2  0
 10 11  1  0
 11 12  2  0
  4 13  1  0
 13 14  1  0
 13 15  2  0
 12  7  1  0
M  ISO  3   1   1   3   3  14   2
V    1 *
V    3 *
V   14 *
M  END
>  <symbol>  (383) 
hPhe2

>  <m_Rgroups>  (383) 
[H],[OH],[H],None,None,None

>  <m_abbr>  (383) 
hPhe2

>  <m_name>  (383) 
L-Homophenylalanine (2-amino-4-phenylbutanoic acid)

>  <m_type>  (383) 
aa

>  <m_subtype>  (383) 
modified

>  <m_chem_types>  (383) 
1:backbone_n,2:backbone_c,3:backbone_n_mod

$$$$

     RDKit          2D

 19 20  0  0  0  0  0  0  0  0999 V2000
    0.0858   -3.0358    0.0000 R   0  0  0  0  0  0  0  0  0  0  0  0
    0.0862   -2.0360    0.0000 N   0  0  0  0  0  0  0  0  0  0  0  0
   -0.7796   -1.5358    0.0000 R   0  0  0  0  0  0  0  0  0  0  0  0
    0.9524   -1.5364    0.0000 C   0  0  0  0  0  0  0  0  0  0  0  0
    0.9528   -0.5364    0.0000 C   0  0  0  0  0  0  0  0  0  0  0  0
    0.0872   -0.0360    0.0000 C   0  0  0  0  0  0  0  0  0  0  0  0
   -0.8266   -0.4420    0.0000 C   0  0  0  0  0  0  0  0  0  0  0  0
   -1.4954    0.3012    0.0000 N   0  0  0  0  0  0  0  0  0  0  0  0
   -2.4898    0.1974    0.0000 R   0  0  0  0  0  0  0  0  0  0  0  0
   -0.9948    1.1672    0.0000 C   0  0  0  0  0  0  0  0  0  0  0  0
   -1.3032    2.1184    0.0000 C   0  0  0  0  0  0  0  0  0  0  0  0
   -0.6338    2.8612    0.0000 C   0  0  0  0  0  0  0  0  0  0  0  0
   -0.9422    3.8122    0.0000 F   0  0  0  0  0  0  0  0  0  0  0  0
    0.3444    2.6526    0.0000 C   0  0  0  0  0  0  0  0  0  0  0  0
    0.6526    1.7014    0.0000 C   0  0  0  0  0  0  0  0  0  0  0  0
   -0.0168    0.9586    0.0000 C   0  0  0  0  0  0  0  0  0  0  0  0
    1.8180   -2.0368    0.0000 C   0  0  0  0  0  0  0  0  0  0  0  0
    1.8176   -3.0370    0.0000 R   0  0  0  0  0  0  0  0  0  0  0  0
    2.6844   -1.5372    0.0000 O   0  0  0  0  0  0  0  0  0  0  0  0
  1  2  1  0
  2  3  1  0
  2  4  1  0
  4  5  1  1
  5  6  1  0
  6  7  2  0
  7  8  1  0
  8  9  1  0
  8 10  1  0
 10 11  1  0
 11 12  2  0
 12 13  1  0
 12 14  1  0
 14 15  2  0
 15 16  1  0
  4 17  1  0
 17 18  1  0
 17 19  2  0
 16  6  1  0
 16 10  2  0
M  ISO  4   1   1   3   3   9   4  18   2
V    1 *
V    3 *
V    9 *
V   18 *
M  END
>  <symbol>  (384) 
Trp_5F

>  <m_Rgroups>  (384) 
[H],[OH],[H],[H],None,None

>  <m_abbr>  (384) 
Trp_5F

>  <m_name>  (384) 
L-5-Fluorotryptophan

>  <m_type>  (384) 
aa

>  <m_subtype>  (384) 
modified

>  <m_chem_types>  (384) 
1:backbone_n,2:backbone_c,3:backbone_n_mod,4:aromatic_nh

$$$$

     RDKit          2D

 19 20  0  0  0  0  0  0  0  0999 V2000
    0.0858   -3.0358    0.0000 R   0  0  0  0  0  0  0  0  0  0  0  0
    0.0862   -2.0360    0.0000 N   0  0  0  0  0  0  0  0  0  0  0  0
   -0.7796   -1.5358    0.0000 R   0  0  0  0  0  0  0  0  0  0  0  0
    0.9524   -1.5364    0.0000 C   0  0  0  0  0  0  0  0  0  0  0  0
    0.9528   -0.5364    0.0000 C   0  0  0  0  0  0  0  0  0  0  0  0
    0.0872   -0.0360    0.0000 C   0  0  0  0  0  0  0  0  0  0  0  0
   -0.8266   -0.4420    0.0000 C   0  0  0  0  0  0  0  0  0  0  0  0
   -1.4954    0.3012    0.0000 N   0  0  0  0  0  0  0  0  0  0  0  0
   -2.4898    0.1974    0.0000 R   0  0  0  0  0  0  0  0  0  0  0  0
   -0.9948    1.1672    0.0000 C   0  0  0  0  0  0  0  0  0  0  0  0
   -1.3032    2.1184    0.0000 C   0  0  0  0  0  0  0  0  0  0  0  0
   -0.6338    2.8612    0.0000 C   0  0  0  0  0  0  0  0  0  0  0  0
   -0.9422    3.8122    0.0000 C   0  0  0  0  0  0  0  0  0  0  0  0
    0.3444    2.6526    0.0000 C   0  0  0  0  0  0  0  0  0  0  0  0
    0.6526    1.7014    0.0000 C   0  0  0  0  0  0  0  0  0  0  0  0
   -0.0168    0.9586    0.0000 C   0  0  0  0  0  0  0  0  0  0  0  0
    1.8180   -2.0368    0.0000 C   0  0  0  0  0  0  0  0  0  0  0  0
    1.8176   -3.0370    0.0000 R   0  0  0  0  0  0  0  0  0  0  0  0
    2.6844   -1.5372    0.0000 O   0  0  0  0  0  0  0  0  0  0  0  0
  1  2  1  0
  2  3  1  0
  2  4  1  0
  4  5  1  1
  5  6  1  0
  6  7  2  0
  7  8  1  0
  8  9  1  0
  8 10  1  0
 10 11  1  0
 11 12  2  0
 12 13  1  0
 12 14  1  0
 14 15  2  0
 15 16  1  0
  4 17  1  0
 17 18  1  0
 17 19  2  0
 16  6  1  0
 16 10  2  0
M  ISO  4   1   1   3   3   9   4  18   2
V    1 *
V    3 *
V    9 *
V   18 *
M  END
>  <symbol>  (385) 
Trp_5Me

>  <m_Rgroups>  (385) 
[H],[OH],[H],[H],None,None

>  <m_abbr>  (385) 
Trp_5Me

>  <m_name>  (385) 
L-5-Methyltryptophan

>  <m_type>  (385) 
aa

>  <m_subtype>  (385) 
modified

>  <m_chem_types>  (385) 
1:backbone_n,2:backbone_c,3:backbone_n_mod,4:aromatic_nh

$$$$

     RDKit          2D

 19 20  0  0  0  0  0  0  0  0999 V2000
    0.0858   -3.0358    0.0000 R   0  0  0  0  0  0  0  0  0  0  0  0
    0.0862   -2.0360    0.0000 N   0  0  0  0  0  0  0  0  0  0  0  0
   -0.7796   -1.5358    0.0000 R   0  0  0  0  0  0  0  0  0  0  0  0
    0.9524   -1.5364    0.0000 C   0  0  0  0  0  0  0  0  0  0  0  0
    0.9528   -0.5364    0.0000 C   0  0  0  0  0  0  0  0  0  0  0  0
    0.0872   -0.0360    0.0000 C   0  0  0  0  0  0  0  0  0  0  0  0
   -0.8266   -0.4420    0.0000 C   0  0  0  0  0  0  0  0  0  0  0  0
   -1.4954    0.3012    0.0000 N   0  0  0  0  0  0  0  0  0  0  0  0
   -2.4898    0.1974    0.0000 R   0  0  0  0  0  0  0  0  0  0  0  0
   -0.9948    1.1672    0.0000 C   0  0  0  0  0  0  0  0  0  0  0  0
   -1.3032    2.1184    0.0000 C   0  0  0  0  0  0  0  0  0  0  0  0
   -0.6338    2.8612    0.0000 C   0  0  0  0  0  0  0  0  0  0  0  0
   -0.9422    3.8122    0.0000 Br  0  0  0  0  0  0  0  0  0  0  0  0
    0.3444    2.6526    0.0000 C   0  0  0  0  0  0  0  0  0  0  0  0
    0.6526    1.7014    0.0000 C   0  0  0  0  0  0  0  0  0  0  0  0
   -0.0168    0.9586    0.0000 C   0  0  0  0  0  0  0  0  0  0  0  0
    1.8180   -2.0368    0.0000 C   0  0  0  0  0  0  0  0  0  0  0  0
    1.8176   -3.0370    0.0000 R   0  0  0  0  0  0  0  0  0  0  0  0
    2.6844   -1.5372    0.0000 O   0  0  0  0  0  0  0  0  0  0  0  0
  1  2  1  0
  2  3  1  0
  2  4  1  0
  4  5  1  1
  5  6  1  0
  6  7  2  0
  7  8  1  0
  8  9  1  0
  8 10  1  0
 10 11  1  0
 11 12  2  0
 12 13  1  0
 12 14  1  0
 14 15  2  0
 15 16  1  0
  4 17  1  0
 17 18  1  0
 17 19  2  0
 16  6  1  0
 16 10  2  0
M  ISO  4   1   1   3   3   9   4  18   2
V    1 *
V    3 *
V    9 *
V   18 *
M  END
>  <symbol>  (386) 
Trp_5Br

>  <m_Rgroups>  (386) 
[H],[OH],[H],[H],None,None

>  <m_abbr>  (386) 
Trp_5Br

>  <m_name>  (386) 
L-5-Bromotryptophan

>  <m_type>  (386) 
aa

>  <m_subtype>  (386) 
modified

>  <m_chem_types>  (386) 
1:backbone_n,2:backbone_c,3:backbone_n_mod,4:aromatic_nh

$$$$

     RDKit          2D

 20 21  0  0  0  0  0  0  0  0999 V2000
    0.1818   -3.2370    0.0000 R   0  0  0  0  0  0  0  0  0  0  0  0
    0.1822   -2.2370    0.0000 N   0  0  0  0  0  0  0  0  0  0  0  0
   -0.6834   -1.7368    0.0000 R   0  0  0  0  0  0  0  0  0  0  0  0
    1.0484   -1.7374    0.0000 C   0  0  0  0  0  0  0  0  0  0  0  0
    1.0490   -0.7374    0.0000 C   0  0  0  0  0  0  0  0  0  0  0  0
    0.1834   -0.2370    0.0000 C   0  0  0  0  0  0  0  0  0  0  0  0
   -0.7306   -0.6430    0.0000 C   0  0  0  0  0  0  0  0  0  0  0  0
   -1.3994    0.1002    0.0000 N   0  0  0  0  0  0  0  0  0  0  0  0
   -2.3938   -0.0036    0.0000 R   0  0  0  0  0  0  0  0  0  0  0  0
   -0.8988    0.9660    0.0000 C   0  0  0  0  0  0  0  0  0  0  0  0
   -1.2072    1.9172    0.0000 C   0  0  0  0  0  0  0  0  0  0  0  0
   -0.5378    2.6600    0.0000 C   0  0  0  0  0  0  0  0  0  0  0  0
   -0.8462    3.6112    0.0000 O   0  0  0  0  0  0  0  0  0  0  0  0
   -1.8242    3.8196    0.0000 C   0  0  0  0  0  0  0  0  0  0  0  0
    0.4404    2.4516    0.0000 C   0  0  0  0  0  0  0  0  0  0  0  0
    0.7488    1.5004    0.0000 C   0  0  0  0  0  0  0  0  0  0  0  0
    0.0792    0.7576    0.0000 C   0  0  0  0  0  0  0  0  0  0  0  0
    1.9142   -2.2378    0.0000 C   0  0  0  0  0  0  0  0  0  0  0  0
    1.9136   -3.2380    0.0000 R   0  0  0  0  0  0  0  0  0  0  0  0
    2.7804   -1.7384    0.0000 O   0  0  0  0  0  0  0  0  0  0  0  0
  1  2  1  0
  2  3  1  0
  2  4  1  0
  4  5  1  1
  5  6  1  0
  6  7  2  0
  7  8  1  0
  8  9  1  0
  8 10  1  0
 10 11  1  0
 11 12  2  0
 12 13  1  0
 13 14  1  0
 12 15  1  0
 15 16  2  0
 16 17  1  0
  4 18  1  0
 18 19  1  0
 18 20  2  0
 17  6  1  0
 17 10  2  0
M  ISO  4   1   1   3   3   9   4  19   2
V    1 *
V    3 *
V    9 *
V   19 *
M  END
>  <symbol>  (387) 
Trp_5OMe

>  <m_Rgroups>  (387) 
[H],[OH],[H],[H],None,None

>  <m_abbr>  (387) 
Trp_5OMe

>  <m_name>  (387) 
L-5-Methoxytryptophan

>  <m_type>  (387) 
aa

>  <m_subtype>  (387) 
modified

>  <m_chem_types>  (387) 
1:backbone_n,2:backbone_c,3:backbone_n_mod,4:aromatic_nh

$$$$

     RDKit          2D

 19 20  0  0  0  0  0  0  0  0999 V2000
   -1.7099   -3.0176    0.0000 R   0  0  0  0  0  0  0  0  0  0  0  0
   -1.7119   -2.0176    0.0000 N   0  0  0  0  0  0  0  0  0  0  0  0
   -2.5791   -1.5194    0.0000 R   0  0  0  0  0  0  0  0  0  0  0  0
   -0.8471   -1.5158    0.0000 C   0  0  0  0  0  0  0  0  0  0  0  0
   -0.8491   -0.5158    0.0000 C   0  0  0  0  0  0  0  0  0  0  0  0
    0.0157   -0.0140    0.0000 C   0  0  0  0  0  0  0  0  0  0  0  0
    0.9301   -0.4186    0.0000 C   0  0  0  0  0  0  0  0  0  0  0  0
    1.5979    0.3258    0.0000 N   0  0  0  0  0  0  0  0  0  0  0  0
    2.5923    0.2236    0.0000 R   0  0  0  0  0  0  0  0  0  0  0  0
    1.0959    1.1908    0.0000 C   0  0  0  0  0  0  0  0  0  0  0  0
    1.4027    2.1424    0.0000 C   0  0  0  0  0  0  0  0  0  0  0  0
    0.7321    2.8842    0.0000 C   0  0  0  0  0  0  0  0  0  0  0  0
   -0.2457    2.6742    0.0000 C   0  0  0  0  0  0  0  0  0  0  0  0
   -0.9163    3.4158    0.0000 F   0  0  0  0  0  0  0  0  0  0  0  0
   -0.5525    1.7224    0.0000 C   0  0  0  0  0  0  0  0  0  0  0  0
    0.1181    0.9808    0.0000 C   0  0  0  0  0  0  0  0  0  0  0  0
    0.0199   -2.0140    0.0000 C   0  0  0  0  0  0  0  0  0  0  0  0
    0.0219   -3.0140    0.0000 R   0  0  0  0  0  0  0  0  0  0  0  0
    0.8849   -1.5124    0.0000 O   0  0  0  0  0  0  0  0  0  0  0  0
  1  2  1  0
  2  3  1  0
  2  4  1  0
  4  5  1  1
  5  6  1  0
  6  7  2  0
  7  8  1  0
  8  9  1  0
  8 10  1  0
 10 11  1  0
 11 12  2  0
 12 13  1  0
 13 14  1  0
 13 15  2  0
 15 16  1  0
  4 17  1  0
 17 18  1  0
 17 19  2  0
 16  6  1  0
 16 10  2  0
M  ISO  4   1   1   3   3   9   4  18   2
V    1 *
V    3 *
V    9 *
V   18 *
M  END
>  <symbol>  (388) 
Trp_6F

>  <m_Rgroups>  (388) 
[H],[OH],[H],[H],None,None

>  <m_abbr>  (388) 
Trp_6F

>  <m_name>  (388) 
L-6-Fluorotryptophan

>  <m_type>  (388) 
aa

>  <m_subtype>  (388) 
modified

>  <m_chem_types>  (388) 
1:backbone_n,2:backbone_c,3:backbone_n_mod,4:aromatic_nh

$$$$

     RDKit          2D

 18 19  0  0  0  0  0  0  0  0999 V2000
   -1.7608   -2.8281    0.0000 R   0  0  0  0  0  0  0  0  0  0  0  0
   -1.7628   -1.8279    0.0000 N   0  0  0  0  0  0  0  0  0  0  0  0
   -2.6300   -1.3297    0.0000 R   0  0  0  0  0  0  0  0  0  0  0  0
   -0.8980   -1.3261    0.0000 C   0  0  0  0  0  0  0  0  0  0  0  0
   -0.9000   -0.3261    0.0000 C   0  0  0  0  0  0  0  0  0  0  0  0
   -0.0352    0.1757    0.0000 C   0  0  0  0  0  0  0  0  0  0  0  0
    0.8792   -0.2289    0.0000 C   0  0  0  0  0  0  0  0  0  0  0  0
    1.5468    0.5155    0.0000 N   0  0  0  0  0  0  0  0  0  0  0  0
    2.5414    0.4133    0.0000 R   0  0  0  0  0  0  0  0  0  0  0  0
    1.0448    1.3805    0.0000 C   0  0  0  0  0  0  0  0  0  0  0  0
    1.3518    2.3321    0.0000 N   0  0  0  0  0  0  0  0  0  0  0  0
    0.6812    3.0739    0.0000 C   0  0  0  0  0  0  0  0  0  0  0  0
   -0.2966    2.8639    0.0000 C   0  0  0  0  0  0  0  0  0  0  0  0
   -0.6034    1.9121    0.0000 C   0  0  0  0  0  0  0  0  0  0  0  0
    0.0672    1.1705    0.0000 C   0  0  0  0  0  0  0  0  0  0  0  0
   -0.0310   -1.8243    0.0000 C   0  0  0  0  0  0  0  0  0  0  0  0
   -0.0290   -2.8243    0.0000 R   0  0  0  0  0  0  0  0  0  0  0  0
    0.8340   -1.3227    0.0000 O   0  0  0  0  0  0  0  0  0  0  0  0
  1  2  1  0
  2  3  1  0
  2  4  1  0
  4  5  1  1
  5  6  1  0
  6  7  2  0
  7  8  1  0
  8  9  1  0
  8 10  1  0
 10 11  2  0
 11 12  1  0
 12 13  2  0
 13 14  1  0
 14 15  2  0
  4 16  1  0
 16 17  1  0
 16 18  2  0
 15  6  1  0
 15 10  1  0
M  ISO  4   1   1   3   3   9   4  17   2
V    1 *
V    3 *
V    9 *
V   17 *
M  END
>  <symbol>  (389) 
Trp_7Aza

>  <m_Rgroups>  (389) 
[H],[OH],[H],[H],None,None

>  <m_abbr>  (389) 
Trp_7Aza

>  <m_name>  (389) 
L-7-Azatryptophan

>  <m_type>  (389) 
aa

>  <m_subtype>  (389) 
modified

>  <m_chem_types>  (389) 
1:backbone_n,2:backbone_c,3:backbone_n_mod,4:aromatic_nh

$$$$

     RDKit          2D

 18 19  0  0  0  0  0  0  0  0999 V2000
   -1.7608   -2.8281    0.0000 R   0  0  0  0  0  0  0  0  0  0  0  0
   -1.7628   -1.8279    0.0000 N   0  0  0  0  0  0  0  0  0  0  0  0
   -2.6300   -1.3297    0.0000 R   0  0  0  0  0  0  0  0  0  0  0  0
   -0.8980   -1.3261    0.0000 C   0  0  0  0  0  0  0  0  0  0  0  0
   -0.9000   -0.3261    0.0000 C   0  0  0  0  0  0  0  0  0  0  0  0
   -0.0352    0.1757    0.0000 C   0  0  0  0  0  0  0  0  0  0  0  0
    0.8792   -0.2289    0.0000 C   0  0  0  0  0  0  0  0  0  0  0  0
    1.5468    0.5155    0.0000 N   0  0  0  0  0  0  0  0  0  0  0  0
    2.5414    0.4133    0.0000 C   0  0  0  0  0  0  0  0  0  0  0  0
    1.0448    1.3805    0.0000 C   0  0  0  0  0  0  0  0  0  0  0  0
    1.3518    2.3321    0.0000 C   0  0  0  0  0  0  0  0  0  0  0  0
    0.6812    3.0739    0.0000 C   0  0  0  0  0  0  0  0  0  0  0  0
   -0.2966    2.8639    0.0000 C   0  0  0  0  0  0  0  0  0  0  0  0
   -0.6034    1.9121    0.0000 C   0  0  0  0  0  0  0  0  0  0  0  0
    0.0672    1.1705    0.0000 C   0  0  0  0  0  0  0  0  0  0  0  0
   -0.0310   -1.8243    0.0000 C   0  0  0  0  0  0  0  0  0  0  0  0
   -0.0290   -2.8243    0.0000 R   0  0  0  0  0  0  0  0  0  0  0  0
    0.8340   -1.3227    0.0000 O   0  0  0  0  0  0  0  0  0  0  0  0
  1  2  1  0
  2  3  1  0
  2  4  1  0
  4  5  1  1
  5  6  1  0
  6  7  2  0
  7  8  1  0
  8  9  1  0
  8 10  1  0
 10 11  2  0
 11 12  1  0
 12 13  2  0
 13 14  1  0
 14 15  2  0
  4 16  1  0
 16 17  1  0
 16 18  2  0
 15  6  1  0
 15 10  1  0
M  ISO  3   1   1   3   3  17   2
V    1 *
V    3 *
V   17 *
M  END
>  <symbol>  (390) 
Trp_1Me

>  <m_Rgroups>  (390) 
[H],[OH],[H],None,None,None

>  <m_abbr>  (390) 
Trp_1Me

>  <m_name>  (390) 
L-1-Methyltryptophan

>  <m_type>  (390) 
aa

>  <m_subtype>  (390) 
modified

>  <m_chem_types>  (390) 
1:backbone_n,2:backbone_c,3:backbone_n_mod

$$$$

     RDKit          2D

 19 20  0  0  0  0  0  0  0  0999 V2000
   -1.8880   -2.9588    0.0000 R   0  0  0  0  0  0  0  0  0  0  0  0
   -1.8886   -1.9588    0.0000 N   0  0  0  0  0  0  0  0  0  0  0  0
   -2.7550   -1.4592    0.0000 R   0  0  0  0  0  0  0  0  0  0  0  0
   -1.0228   -1.4582    0.0000 C   0  0  0  0  0  0  0  0  0  0  0  0
   -1.0234   -0.4582    0.0000 C   0  0  0  0  0  0  0  0  0  0  0  0
   -0.1578    0.0420    0.0000 C   0  0  0  0  0  0  0  0  0  0  0  0
    0.7560   -0.3638    0.0000 C   0  0  0  0  0  0  0  0  0  0  0  0
    1.4250    0.3794    0.0000 N   0  0  0  0  0  0  0  0  0  0  0  0
    2.4194    0.2756    0.0000 R   0  0  0  0  0  0  0  0  0  0  0  0
    0.9244    1.2452    0.0000 C   0  0  0  0  0  0  0  0  0  0  0  0
    1.2328    2.1964    0.0000 C   0  0  0  0  0  0  0  0  0  0  0  0
    2.2108    2.4050    0.0000 F   0  0  0  0  0  0  0  0  0  0  0  0
    0.5632    2.9392    0.0000 C   0  0  0  0  0  0  0  0  0  0  0  0
   -0.4148    2.7308    0.0000 C   0  0  0  0  0  0  0  0  0  0  0  0
   -0.7232    1.7796    0.0000 C   0  0  0  0  0  0  0  0  0  0  0  0
   -0.0536    1.0368    0.0000 C   0  0  0  0  0  0  0  0  0  0  0  0
   -0.1568   -1.9578    0.0000 C   0  0  0  0  0  0  0  0  0  0  0  0
   -0.1562   -2.9578    0.0000 R   0  0  0  0  0  0  0  0  0  0  0  0
    0.7090   -1.4576    0.0000 O   0  0  0  0  0  0  0  0  0  0  0  0
  1  2  1  0
  2  3  1  0
  2  4  1  0
  4  5  1  1
  5  6  1  0
  6  7  2  0
  7  8  1  0
  8  9  1  0
  8 10  1  0
 10 11  2  0
 11 12  1  0
 11 13  1  0
 13 14  2  0
 14 15  1  0
 15 16  2  0
  4 17  1  0
 17 18  1  0
 17 19  2  0
 16  6  1  0
 16 10  1  0
M  ISO  4   1   1   3   3   9   4  18   2
V    1 *
V    3 *
V    9 *
V   18 *
M  END
>  <symbol>  (391) 
Trp_4F

>  <m_Rgroups>  (391) 
[H],[OH],[H],[H],None,None

>  <m_abbr>  (391) 
Trp_4F

>  <m_name>  (391) 
L-4-Fluorotryptophan

>  <m_type>  (391) 
aa

>  <m_subtype>  (391) 
modified

>  <m_chem_types>  (391) 
1:backbone_n,2:backbone_c,3:backbone_n_mod,4:aromatic_nh

$$$$

     RDKit          2D

 19 20  0  0  0  0  0  0  0  0999 V2000
   -0.7166   -3.3901    0.0000 R   0  0  0  0  0  0  0  0  0  0  0  0
   -0.7132   -2.3903    0.0000 N   0  0  0  0  0  0  0  0  0  0  0  0
   -1.5776   -1.8875    0.0000 R   0  0  0  0  0  0  0  0  0  0  0  0
    0.1544   -1.8931    0.0000 C   0  0  0  0  0  0  0  0  0  0  0  0
    0.1578   -0.8931    0.0000 C   0  0  0  0  0  0  0  0  0  0  0  0
   -0.7066   -0.3901    0.0000 C   0  0  0  0  0  0  0  0  0  0  0  0
   -0.7034    0.6095    0.0000 C   0  0  0  0  0  0  0  0  0  0  0  0
   -1.5102    1.2003    0.0000 C   0  0  0  0  0  0  0  0  0  0  0  0
   -1.1982    2.1503    0.0000 N   0  0  0  0  0  0  0  0  0  0  0  0
   -1.7830    2.9611    0.0000 R   0  0  0  0  0  0  0  0  0  0  0  0
   -0.1982    2.1469    0.0000 C   0  0  0  0  0  0  0  0  0  0  0  0
    0.4736    2.8877    0.0000 C   0  0  0  0  0  0  0  0  0  0  0  0
    1.4510    2.6765    0.0000 C   0  0  0  0  0  0  0  0  0  0  0  0
    1.7568    1.7245    0.0000 C   0  0  0  0  0  0  0  0  0  0  0  0
    1.0850    0.9837    0.0000 C   0  0  0  0  0  0  0  0  0  0  0  0
    0.1078    1.1947    0.0000 C   0  0  0  0  0  0  0  0  0  0  0  0
    1.0188   -2.3961    0.0000 C   0  0  0  0  0  0  0  0  0  0  0  0
    1.0156   -3.3959    0.0000 R   0  0  0  0  0  0  0  0  0  0  0  0
    1.8866   -1.8989    0.0000 O   0  0  0  0  0  0  0  0  0  0  0  0
  1  2  1  0
  2  3  1  0
  2  4  1  0
  4  5  1  1
  5  6  1  0
  6  7  1  0
  7  8  2  0
  8  9  1  0
  9 10  1  0
  9 11  1  0
 11 12  2  0
 12 13  1  0
 13 14  2  0
 14 15  1  0
 15 16  2  0
  4 17  1  0
 17 18  1  0
 17 19  2  0
 16  7  1  0
 16 11  1  0
M  ISO  4   1   1   3   3  10   4  18   2
V    1 *
V    3 *
V   10 *
V   18 *
M  END
>  <symbol>  (392) 
hTrp

>  <m_Rgroups>  (392) 
[H],[OH],[H],[H],None,None

>  <m_abbr>  (392) 
hTrp

>  <m_name>  (392) 
L-Homotryptophan

>  <m_type>  (392) 
aa

>  <m_subtype>  (392) 
modified

>  <m_chem_types>  (392) 
1:backbone_n,2:backbone_c,3:backbone_n_mod,4:aromatic_nh

$$$$

     RDKit          2D

 17 17  0  0  0  0  0  0  0  0999 V2000
    0.3077   -2.5880    0.0000 R   0  0  0  0  0  0  0  0  0  0  0  0
    0.3069   -1.5880    0.0000 N   0  0  0  0  0  0  0  0  0  0  0  0
   -0.5595   -1.0888    0.0000 R   0  0  0  0  0  0  0  0  0  0  0  0
    1.1725   -1.0874    0.0000 C   0  0  0  0  0  0  0  0  0  0  0  0
    1.1717   -0.0874    0.0000 C   0  0  0  0  0  0  0  0  0  0  0  0
    0.3055    0.4120    0.0000 C   0  0  0  0  0  0  0  0  0  0  0  0
   -0.5603   -0.0886    0.0000 C   0  0  0  0  0  0  0  0  0  0  0  0
   -1.4267    0.4106    0.0000 C   0  0  0  0  0  0  0  0  0  0  0  0
   -1.4275    1.4106    0.0000 C   0  0  0  0  0  0  0  0  0  0  0  0
   -2.2939    1.9098    0.0000 O   0  0  0  0  0  0  0  0  0  0  0  0
   -3.1595    1.4092    0.0000 R   0  0  0  0  0  0  0  0  0  0  0  0
   -0.5619    1.9112    0.0000 C   0  0  0  0  0  0  0  0  0  0  0  0
   -0.5627    2.9112    0.0000 F   0  0  0  0  0  0  0  0  0  0  0  0
    0.3047    1.4120    0.0000 C   0  0  0  0  0  0  0  0  0  0  0  0
    2.0389   -1.5866    0.0000 C   0  0  0  0  0  0  0  0  0  0  0  0
    2.0397   -2.5866    0.0000 R   0  0  0  0  0  0  0  0  0  0  0  0
    2.9045   -1.0860    0.0000 O   0  0  0  0  0  0  0  0  0  0  0  0
  1  2  1  0
  2  3  1  0
  2  4  1  0
  4  5  1  1
  5  6  1  0
  6  7  1  0
  7  8  2  0
  8  9  1  0
  9 10  1  0
 10 11  1  0
  9 12  2  0
 12 13  1  0
 12 14  1  0
  4 15  1  0
 15 16  1  0
 15 17  2  0
 14  6  2  0
M  ISO  4   1   1   3   3  11   4  16   2
V    1 *
V    3 *
V   11 *
V   16 *
M  END
>  <symbol>  (393) 
Tyr_3F

>  <m_Rgroups>  (393) 
[H],[OH],[H],[H],None,None

>  <m_abbr>  (393) 
Tyr_3F

>  <m_name>  (393) 
L-3-Fluorotyrosine

>  <m_type>  (393) 
aa

>  <m_subtype>  (393) 
modified

>  <m_chem_types>  (393) 
1:backbone_n,2:backbone_c,3:backbone_n_mod,4:hydroxyl_phenolic

$$$$

     RDKit          2D

 17 17  0  0  0  0  0  0  0  0999 V2000
    0.3077   -2.5880    0.0000 R   0  0  0  0  0  0  0  0  0  0  0  0
    0.3069   -1.5880    0.0000 N   0  0  0  0  0  0  0  0  0  0  0  0
   -0.5595   -1.0888    0.0000 R   0  0  0  0  0  0  0  0  0  0  0  0
    1.1725   -1.0874    0.0000 C   0  0  0  0  0  0  0  0  0  0  0  0
    1.1717   -0.0874    0.0000 C   0  0  0  0  0  0  0  0  0  0  0  0
    0.3055    0.4120    0.0000 C   0  0  0  0  0  0  0  0  0  0  0  0
   -0.5603   -0.0886    0.0000 C   0  0  0  0  0  0  0  0  0  0  0  0
   -1.4267    0.4106    0.0000 C   0  0  0  0  0  0  0  0  0  0  0  0
   -1.4275    1.4106    0.0000 C   0  0  0  0  0  0  0  0  0  0  0  0
   -2.2939    1.9098    0.0000 O   0  0  0  0  0  0  0  0  0  0  0  0
   -3.1595    1.4092    0.0000 R   0  0  0  0  0  0  0  0  0  0  0  0
   -0.5619    1.9112    0.0000 C   0  0  0  0  0  0  0  0  0  0  0  0
   -0.5627    2.9112    0.0000 Cl  0  0  0  0  0  0  0  0  0  0  0  0
    0.3047    1.4120    0.0000 C   0  0  0  0  0  0  0  0  0  0  0  0
    2.0389   -1.5866    0.0000 C   0  0  0  0  0  0  0  0  0  0  0  0
    2.0397   -2.5866    0.0000 R   0  0  0  0  0  0  0  0  0  0  0  0
    2.9045   -1.0860    0.0000 O   0  0  0  0  0  0  0  0  0  0  0  0
  1  2  1  0
  2  3  1  0
  2  4  1  0
  4  5  1  1
  5  6  1  0
  6  7  1  0
  7  8  2  0
  8  9  1  0
  9 10  1  0
 10 11  1  0
  9 12  2  0
 12 13  1  0
 12 14  1  0
  4 15  1  0
 15 16  1  0
 15 17  2  0
 14  6  2  0
M  ISO  4   1   1   3   3  11   4  16   2
V    1 *
V    3 *
V   11 *
V   16 *
M  END
>  <symbol>  (394) 
Tyr_3Cl

>  <m_Rgroups>  (394) 
[H],[OH],[H],[H],None,None

>  <m_abbr>  (394) 
Tyr_3Cl

>  <m_name>  (394) 
L-3-Chlorotyrosine

>  <m_type>  (394) 
aa

>  <m_subtype>  (394) 
modified

>  <m_chem_types>  (394) 
1:backbone_n,2:backbone_c,3:backbone_n_mod,4:hydroxyl_phenolic

$$$$

     RDKit          2D

 17 17  0  0  0  0  0  0  0  0999 V2000
    0.3077   -2.5880    0.0000 R   0  0  0  0  0  0  0  0  0  0  0  0
    0.3069   -1.5880    0.0000 N   0  0  0  0  0  0  0  0  0  0  0  0
   -0.5595   -1.0888    0.0000 R   0  0  0  0  0  0  0  0  0  0  0  0
    1.1725   -1.0874    0.0000 C   0  0  0  0  0  0  0  0  0  0  0  0
    1.1717   -0.0874    0.0000 C   0  0  0  0  0  0  0  0  0  0  0  0
    0.3055    0.4120    0.0000 C   0  0  0  0  0  0  0  0  0  0  0  0
   -0.5603   -0.0886    0.0000 C   0  0  0  0  0  0  0  0  0  0  0  0
   -1.4267    0.4106    0.0000 C   0  0  0  0  0  0  0  0  0  0  0  0
   -1.4275    1.4106    0.0000 C   0  0  0  0  0  0  0  0  0  0  0  0
   -2.2939    1.9098    0.0000 O   0  0  0  0  0  0  0  0  0  0  0  0
   -3.1595    1.4092    0.0000 R   0  0  0  0  0  0  0  0  0  0  0  0
   -0.5619    1.9112    0.0000 C   0  0  0  0  0  0  0  0  0  0  0  0
   -0.5627    2.9112    0.0000 Br  0  0  0  0  0  0  0  0  0  0  0  0
    0.3047    1.4120    0.0000 C   0  0  0  0  0  0  0  0  0  0  0  0
    2.0389   -1.5866    0.0000 C   0  0  0  0  0  0  0  0  0  0  0  0
    2.0397   -2.5866    0.0000 R   0  0  0  0  0  0  0  0  0  0  0  0
    2.9045   -1.0860    0.0000 O   0  0  0  0  0  0  0  0  0  0  0  0
  1  2  1  0
  2  3  1  0
  2  4  1  0
  4  5  1  1
  5  6  1  0
  6  7  1  0
  7  8  2  0
  8  9  1  0
  9 10  1  0
 10 11  1  0
  9 12  2  0
 12 13  1  0
 12 14  1  0
  4 15  1  0
 15 16  1  0
 15 17  2  0
 14  6  2  0
M  ISO  4   1   1   3   3  11   4  16   2
V    1 *
V    3 *
V   11 *
V   16 *
M  END
>  <symbol>  (395) 
Tyr_3Br

>  <m_Rgroups>  (395) 
[H],[OH],[H],[H],None,None

>  <m_abbr>  (395) 
Tyr_3Br

>  <m_name>  (395) 
L-3-Bromotyrosine

>  <m_type>  (395) 
aa

>  <m_subtype>  (395) 
modified

>  <m_chem_types>  (395) 
1:backbone_n,2:backbone_c,3:backbone_n_mod,4:hydroxyl_phenolic

$$$$

     RDKit          2D

 18 18  0  0  0  0  0  0  0  0999 V2000
    0.1680   -2.7942    0.0000 R   0  0  0  0  0  0  0  0  0  0  0  0
    0.0984   -1.7802    0.0000 N   0  0  0  0  0  0  0  0  0  0  0  0
   -0.8364   -1.3606    0.0000 R   0  0  0  0  0  0  0  0  0  0  0  0
    1.0456   -1.1888    0.0000 C   0  0  0  0  0  0  0  0  0  0  0  0
    1.1430    0.0130    0.0000 C   0  0  0  0  0  0  0  0  0  0  0  0
    0.2832    0.7106    0.0000 C   0  0  0  0  0  0  0  0  0  0  0  0
    0.3212    1.7116    0.0000 C   0  0  0  0  0  0  0  0  0  0  0  0
    1.2016    2.1834    0.0000 C   0  0  0  0  0  0  0  0  0  0  0  0
   -0.5282    2.2432    0.0000 C   0  0  0  0  0  0  0  0  0  0  0  0
   -1.4118    1.7774    0.0000 C   0  0  0  0  0  0  0  0  0  0  0  0
   -2.2636    2.3032    0.0000 O   0  0  0  0  0  0  0  0  0  0  0  0
   -3.1464    1.8264    0.0000 R   0  0  0  0  0  0  0  0  0  0  0  0
   -1.4442    0.7774    0.0000 C   0  0  0  0  0  0  0  0  0  0  0  0
   -0.5966    0.2434    0.0000 C   0  0  0  0  0  0  0  0  0  0  0  0
   -0.5828   -0.7078    0.0000 C   0  0  0  0  0  0  0  0  0  0  0  0
    1.9092   -1.7822    0.0000 C   0  0  0  0  0  0  0  0  0  0  0  0
    1.8216   -2.7998    0.0000 R   0  0  0  0  0  0  0  0  0  0  0  0
    2.8176   -1.3752    0.0000 O   0  0  0  0  0  0  0  0  0  0  0  0
  1  2  1  0
  2  3  1  0
  2  4  1  0
  4  5  1  1
  5  6  1  0
  6  7  2  0
  7  8  1  0
  7  9  1  0
  9 10  2  0
 10 11  1  0
 11 12  1  0
 10 13  1  0
 13 14  2  0
 14 15  1  0
  4 16  1  0
 16 17  1  0
 16 18  2  0
 14  6  1  0
M  ISO  4   1   1   3   3  12   4  17   2
V    1 *
V    3 *
V   12 *
V   17 *
M  END
>  <symbol>  (396) 
Tyr_35diMe

>  <m_Rgroups>  (396) 
[H],[OH],[H],[H],None,None

>  <m_abbr>  (396) 
Tyr_35diMe

>  <m_name>  (396) 
L-3,5-Dimethyltyrosine

>  <m_type>  (396) 
aa

>  <m_subtype>  (396) 
modified

>  <m_chem_types>  (396) 
1:backbone_n,2:backbone_c,3:backbone_n_mod,4:hydroxyl_phenolic

$$$$

     RDKit          2D

 11 10  0  0  0  0  0  0  0  0999 V2000
   -1.1022   -1.3042    0.0000 R   0  0  0  0  0  0  0  0  0  0  0  0
   -0.8470   -0.3372    0.0000 N   0  0  0  0  0  0  0  0  0  0  0  0
   -1.5568    0.3672    0.0000 R   0  0  0  0  0  0  0  0  0  0  0  0
    0.1178   -0.0748    0.0000 C   0  0  0  0  0  0  0  0  0  0  0  0
   -0.1372   -1.0416    0.0000 C   0  0  0  0  0  0  0  0  0  0  0  0
    1.0848   -0.3298    0.0000 C   0  0  0  0  0  0  0  0  0  0  0  0
    1.3472   -1.2948    0.0000 R   0  0  0  0  0  0  0  0  0  0  0  0
    1.7892    0.3800    0.0000 O   0  0  0  0  0  0  0  0  0  0  0  0
   -0.1446    0.8902    0.0000 C   0  0  0  0  0  0  0  0  0  0  0  0
   -1.1114    1.1452    0.0000 C   0  0  0  0  0  0  0  0  0  0  0  0
    0.5598    1.6000    0.0000 C   0  0  0  0  0  0  0  0  0  0  0  0
  1  2  1  0
  2  3  1  0
  2  4  1  0
  4  5  1  0
  4  6  1  0
  6  7  1  0
  6  8  2  0
  4  9  1  0
  9 10  1  0
  9 11  1  0
M  ISO  3   1   1   3   3   7   2
V    1 *
V    3 *
V    7 *
M  END
>  <symbol>  (397) 
aMeVal

>  <m_Rgroups>  (397) 
[H],[OH],[H],None,None,None

>  <m_abbr>  (397) 
aMeVal

>  <m_name>  (397) 
alpha-Methylvaline (alpha-Me-Val)

>  <m_type>  (397) 
aa

>  <m_subtype>  (397) 
modified

>  <m_chem_types>  (397) 
1:backbone_n,2:backbone_c,3:backbone_n_mod

$$$$

     RDKit          2D

 19 20  0  0  0  0  0  0  0  0999 V2000
   -0.6960   -1.3181    0.0000 R   0  0  0  0  0  0  0  0  0  0  0  0
    0.2700   -1.5773    0.0000 N   0  0  0  0  0  0  0  0  0  0  0  0
    0.5282   -2.5435    0.0000 R   0  0  0  0  0  0  0  0  0  0  0  0
    0.9774   -0.8705    0.0000 C   0  0  0  0  0  0  0  0  0  0  0  0
    0.0114   -0.6113    0.0000 C   0  0  0  0  0  0  0  0  0  0  0  0
    1.2366    0.0953    0.0000 C   0  0  0  0  0  0  0  0  0  0  0  0
    0.5298    0.8027    0.0000 C   0  0  0  0  0  0  0  0  0  0  0  0
    0.6868    1.7903    0.0000 C   0  0  0  0  0  0  0  0  0  0  0  0
   -0.2040    2.2447    0.0000 N   0  0  0  0  0  0  0  0  0  0  0  0
   -0.3600    3.2323    0.0000 R   0  0  0  0  0  0  0  0  0  0  0  0
   -0.9114    1.5379    0.0000 C   0  0  0  0  0  0  0  0  0  0  0  0
   -1.9100    1.5907    0.0000 C   0  0  0  0  0  0  0  0  0  0  0  0
   -2.4550    0.7523    0.0000 C   0  0  0  0  0  0  0  0  0  0  0  0
   -2.0014   -0.1389    0.0000 C   0  0  0  0  0  0  0  0  0  0  0  0
   -1.0028   -0.1917    0.0000 C   0  0  0  0  0  0  0  0  0  0  0  0
   -0.4578    0.6467    0.0000 C   0  0  0  0  0  0  0  0  0  0  0  0
    1.6840   -1.5779    0.0000 C   0  0  0  0  0  0  0  0  0  0  0  0
    1.4248   -2.5439    0.0000 R   0  0  0  0  0  0  0  0  0  0  0  0
    2.6502   -1.3197    0.0000 O   0  0  0  0  0  0  0  0  0  0  0  0
  1  2  1  0
  2  3  1  0
  2  4  1  0
  4  5  1  0
  4  6  1  0
  6  7  1  0
  7  8  2  0
  8  9  1  0
  9 10  1  0
  9 11  1  0
 11 12  2  0
 12 13  1  0
 13 14  2  0
 14 15  1  0
 15 16  2  0
  4 17  1  0
 17 18  1  0
 17 19  2  0
 16  7  1  0
 16 11  1  0
M  ISO  4   1   1   3   3  10   4  18   2
V    1 *
V    3 *
V   10 *
V   18 *
M  END
>  <symbol>  (398) 
aMeTrp

>  <m_Rgroups>  (398) 
[H],[OH],[H],[H],None,None

>  <m_abbr>  (398) 
aMeTrp

>  <m_name>  (398) 
alpha-Methyltryptophan

>  <m_type>  (398) 
aa

>  <m_subtype>  (398) 
modified

>  <m_chem_types>  (398) 
1:backbone_n,2:backbone_c,3:backbone_n_mod,4:aromatic_nh

$$$$

     RDKit          2D

 13 12  0  0  0  0  0  0  0  0999 V2000
   -1.0398    2.4415    0.0000 R   0  0  0  0  0  0  0  0  0  0  0  0
   -1.8741    1.1949    0.0000 N   0  0  0  0  0  0  0  0  0  0  0  0
   -3.3709    1.2942    0.0000 R   0  0  0  0  0  0  0  0  0  0  0  0
   -1.2118   -0.1509    0.0000 C   0  0  0  0  0  0  0  0  0  0  0  0
   -2.5576   -0.8133    0.0000 C   0  0  0  0  0  0  0  0  0  0  0  0
    0.1341    0.5115    0.0000 C   0  0  0  0  0  0  0  0  0  0  0  0
    1.3806   -0.3228    0.0000 C   0  0  0  0  0  0  0  0  0  0  0  0
    2.7264    0.3395    0.0000 C   0  0  0  0  0  0  0  0  0  0  0  0
    3.9730   -0.4948    0.0000 R   0  0  0  0  0  0  0  0  0  0  0  0
    2.8257    1.8363    0.0000 O   0  0  0  0  0  0  0  0  0  0  0  0
   -0.5494   -1.4967    0.0000 C   0  0  0  0  0  0  0  0  0  0  0  0
    0.9473   -1.5960    0.0000 R   0  0  0  0  0  0  0  0  0  0  0  0
   -1.3837   -2.7433    0.0000 O   0  0  0  0  0  0  0  0  0  0  0  0
  1  2  1  0
  2  3  1  0
  2  4  1  0
  4  5  1  0
  4  6  1  0
  6  7  1  0
  7  8  1  0
  8  9  1  0
  8 10  2  0
  4 11  1  0
 11 12  1  0
 11 13  2  0
M  ISO  4   1   1   3   3   9   4  12   2
V    1 *
V    3 *
V    9 *
V   12 *
M  END
>  <symbol>  (399) 
aMeGlu

>  <m_Rgroups>  (399) 
[H],[OH],[H],[OH],None,None

>  <m_abbr>  (399) 
aMeGlu

>  <m_name>  (399) 
alpha-Methylglutamic acid

>  <m_type>  (399) 
aa

>  <m_subtype>  (399) 
modified

>  <m_chem_types>  (399) 
1:backbone_n,2:backbone_c,3:backbone_n_mod,4:carboxyl

$$$$

     RDKit          2D

 12 11  0  0  0  0  0  0  0  0999 V2000
   -1.5133   -0.9293    0.0000 R   0  0  0  0  0  0  0  0  0  0  0  0
   -0.4483   -1.1776    0.0000 N   0  0  0  0  0  0  0  0  0  0  0  0
   -0.1912   -2.6554    0.0000 R   0  0  0  0  0  0  0  0  0  0  0  0
    0.7029   -0.2161    0.0000 C   0  0  0  0  0  0  0  0  0  0  0  0
    1.6645   -1.3673    0.0000 C   0  0  0  0  0  0  0  0  0  0  0  0
   -0.2587    0.9352    0.0000 C   0  0  0  0  0  0  0  0  0  0  0  0
   -1.7365    0.6781    0.0000 C   0  0  0  0  0  0  0  0  0  0  0  0
   -2.2351   -0.2951    0.0000 R   0  0  0  0  0  0  0  0  0  0  0  0
   -2.6980    1.8293    0.0000 O   0  0  0  0  0  0  0  0  0  0  0  0
    1.8542    0.7455    0.0000 C   0  0  0  0  0  0  0  0  0  0  0  0
    1.5970    2.2233    0.0000 R   0  0  0  0  0  0  0  0  0  0  0  0
    3.2625    0.2293    0.0000 O   0  0  0  0  0  0  0  0  0  0  0  0
  1  2  1  0
  2  3  1  0
  2  4  1  0
  4  5  1  0
  4  6  1  0
  6  7  1  0
  7  8  1  0
  7  9  2  0
  4 10  1  0
 10 11  1  0
 10 12  2  0
M  ISO  4   1   1   3   3   8   4  11   2
V    1 *
V    3 *
V    8 *
V   11 *
M  END
>  <symbol>  (400) 
aMeAsp

>  <m_Rgroups>  (400) 
[H],[OH],[H],[OH],None,None

>  <m_abbr>  (400) 
aMeAsp

>  <m_name>  (400) 
alpha-Methylaspartic acid

>  <m_type>  (400) 
aa

>  <m_subtype>  (400) 
modified

>  <m_chem_types>  (400) 
1:backbone_n,2:backbone_c,3:backbone_n_mod,4:carboxyl

$$$$

     RDKit          2D

 15 14  0  0  0  0  0  0  0  0999 V2000
   -0.2773   -2.2263    0.0000 R   0  0  0  0  0  0  0  0  0  0  0  0
   -0.0229   -1.2593    0.0000 N   0  0  0  0  0  0  0  0  0  0  0  0
   -0.7333   -0.5555    0.0000 R   0  0  0  0  0  0  0  0  0  0  0  0
    0.9419   -0.9961    0.0000 C   0  0  0  0  0  0  0  0  0  0  0  0
    0.6875   -1.9631    0.0000 C   0  0  0  0  0  0  0  0  0  0  0  0
    0.6785   -0.0313    0.0000 C   0  0  0  0  0  0  0  0  0  0  0  0
   -0.2885    0.2231    0.0000 C   0  0  0  0  0  0  0  0  0  0  0  0
   -0.5517    1.1877    0.0000 C   0  0  0  0  0  0  0  0  0  0  0  0
   -1.5189    1.4421    0.0000 C   0  0  0  0  0  0  0  0  0  0  0  0
   -1.7821    2.4067    0.0000 N   0  0  0  0  0  0  0  0  0  0  0  0
   -2.7491    2.6611    0.0000 R   0  0  0  0  0  0  0  0  0  0  0  0
   -1.0783    3.1171    0.0000 R   0  0  0  0  0  0  0  0  0  0  0  0
    1.9089   -1.2505    0.0000 C   0  0  0  0  0  0  0  0  0  0  0  0
    2.1721   -2.2151    0.0000 R   0  0  0  0  0  0  0  0  0  0  0  0
    2.6127   -0.5401    0.0000 O   0  0  0  0  0  0  0  0  0  0  0  0
  1  2  1  0
  2  3  1  0
  2  4  1  0
  4  5  1  0
  4  6  1  0
  6  7  1  0
  7  8  1  0
  8  9  1  0
  9 10  1  0
 10 11  1  0
 10 12  1  0
  4 13  1  0
 13 14  1  0
 13 15  2  0
M  ISO  5   1   1   3   3  11   4  12   5  14   2
V    1 *
V    3 *
V   11 *
V   12 *
V   14 *
M  END
>  <symbol>  (401) 
aMeLys

>  <m_Rgroups>  (401) 
[H],[OH],[H],[H],[H],None

>  <m_abbr>  (401) 
aMeLys

>  <m_name>  (401) 
alpha-Methyllysine

>  <m_type>  (401) 
aa

>  <m_subtype>  (401) 
modified

>  <m_chem_types>  (401) 
1:backbone_n,2:backbone_c,3:backbone_n_mod,4:amine_primary,5:amine_secondary

$$$$

     RDKit          2D

 15 14  0  0  0  0  0  0  0  0999 V2000
   -0.3944   -2.0166    0.0000 R   0  0  0  0  0  0  0  0  0  0  0  0
   -0.1400   -1.0494    0.0000 N   0  0  0  0  0  0  0  0  0  0  0  0
   -0.8504   -0.3456    0.0000 R   0  0  0  0  0  0  0  0  0  0  0  0
    0.8248   -0.7862    0.0000 C   0  0  0  0  0  0  0  0  0  0  0  0
    0.5704   -1.7532    0.0000 C   0  0  0  0  0  0  0  0  0  0  0  0
    0.5614    0.1786    0.0000 C   0  0  0  0  0  0  0  0  0  0  0  0
   -0.4056    0.4328    0.0000 C   0  0  0  0  0  0  0  0  0  0  0  0
   -0.6688    1.3976    0.0000 C   0  0  0  0  0  0  0  0  0  0  0  0
    0.0350    2.1080    0.0000 O   0  0  0  0  0  0  0  0  0  0  0  0
   -1.6360    1.6520    0.0000 N   0  0  0  0  0  0  0  0  0  0  0  0
   -1.8992    2.6166    0.0000 R   0  0  0  0  0  0  0  0  0  0  0  0
   -2.3398    0.9416    0.0000 R   0  0  0  0  0  0  0  0  0  0  0  0
    1.7918   -1.0406    0.0000 C   0  0  0  0  0  0  0  0  0  0  0  0
    2.0550   -2.0052    0.0000 R   0  0  0  0  0  0  0  0  0  0  0  0
    2.4956   -0.3302    0.0000 O   0  0  0  0  0  0  0  0  0  0  0  0
  1  2  1  0
  2  3  1  0
  2  4  1  0
  4  5  1  0
  4  6  1  0
  6  7  1  0
  7  8  1  0
  8  9  2  0
  8 10  1  0
 10 11  1  0
 10 12  1  0
  4 13  1  0
 13 14  1  0
 13 15  2  0
M  ISO  5   1   1   3   3  11   4  12   5  14   2
V    1 *
V    3 *
V   11 *
V   12 *
V   14 *
M  END
>  <symbol>  (402) 
aMeGln

>  <m_Rgroups>  (402) 
[H],[OH],[H],[H],[H],None

>  <m_abbr>  (402) 
aMeGln

>  <m_name>  (402) 
alpha-Methylglutamine

>  <m_type>  (402) 
aa

>  <m_subtype>  (402) 
modified

>  <m_chem_types>  (402) 
1:backbone_n,2:backbone_c,3:backbone_n_mod,4:amine_primary,5:amine_secondary

$$$$

     RDKit          2D

 14 13  0  0  0  0  0  0  0  0999 V2000
   -1.4691   -0.9841    0.0000 R   0  0  0  0  0  0  0  0  0  0  0  0
   -0.5037   -1.2447    0.0000 N   0  0  0  0  0  0  0  0  0  0  0  0
   -0.2465   -2.2111    0.0000 R   0  0  0  0  0  0  0  0  0  0  0  0
    0.2047   -0.5387    0.0000 C   0  0  0  0  0  0  0  0  0  0  0  0
   -0.7607   -0.2783    0.0000 C   0  0  0  0  0  0  0  0  0  0  0  0
    0.4653    0.4267    0.0000 C   0  0  0  0  0  0  0  0  0  0  0  0
   -0.2405    1.1349    0.0000 C   0  0  0  0  0  0  0  0  0  0  0  0
   -1.2069    0.8779    0.0000 O   0  0  0  0  0  0  0  0  0  0  0  0
    0.0199    2.1005    0.0000 N   0  0  0  0  0  0  0  0  0  0  0  0
   -0.6859    2.8087    0.0000 R   0  0  0  0  0  0  0  0  0  0  0  0
    0.9863    2.3575    0.0000 R   0  0  0  0  0  0  0  0  0  0  0  0
    0.9105   -1.2471    0.0000 C   0  0  0  0  0  0  0  0  0  0  0  0
    0.6499   -2.2125    0.0000 R   0  0  0  0  0  0  0  0  0  0  0  0
    1.8769   -0.9901    0.0000 O   0  0  0  0  0  0  0  0  0  0  0  0
  1  2  1  0
  2  3  1  0
  2  4  1  0
  4  5  1  0
  4  6  1  0
  6  7  1  0
  7  8  2  0
  7  9  1  0
  9 10  1  0
  9 11  1  0
  4 12  1  0
 12 13  1  0
 12 14  2  0
M  ISO  5   1   1   3   3  10   4  11   5  13   2
V    1 *
V    3 *
V   10 *
V   11 *
V   13 *
M  END
>  <symbol>  (403) 
aMeAsn

>  <m_Rgroups>  (403) 
[H],[OH],[H],[H],[H],None

>  <m_abbr>  (403) 
aMeAsn

>  <m_name>  (403) 
alpha-Methylasparagine

>  <m_type>  (403) 
aa

>  <m_subtype>  (403) 
modified

>  <m_chem_types>  (403) 
1:backbone_n,2:backbone_c,3:backbone_n_mod,4:amine_primary,5:amine_secondary

$$$$

     RDKit          2D

 11 10  0  0  0  0  0  0  0  0999 V2000
   -0.9253   -1.3512    0.0000 R   0  0  0  0  0  0  0  0  0  0  0  0
   -0.6709   -0.3842    0.0000 N   0  0  0  0  0  0  0  0  0  0  0  0
   -1.3813    0.3198    0.0000 R   0  0  0  0  0  0  0  0  0  0  0  0
    0.2939   -0.1208    0.0000 C   0  0  0  0  0  0  0  0  0  0  0  0
    0.0395   -1.0880    0.0000 C   0  0  0  0  0  0  0  0  0  0  0  0
    0.0305    0.8438    0.0000 C   0  0  0  0  0  0  0  0  0  0  0  0
   -0.9365    1.0982    0.0000 O   0  0  0  0  0  0  0  0  0  0  0  0
   -1.1997    2.0628    0.0000 R   0  0  0  0  0  0  0  0  0  0  0  0
    1.2609   -0.3752    0.0000 C   0  0  0  0  0  0  0  0  0  0  0  0
    1.5241   -1.3400    0.0000 R   0  0  0  0  0  0  0  0  0  0  0  0
    1.9647    0.3352    0.0000 O   0  0  0  0  0  0  0  0  0  0  0  0
  1  2  1  0
  2  3  1  0
  2  4  1  0
  4  5  1  0
  4  6  1  0
  6  7  1  0
  7  8  1  0
  4  9  1  0
  9 10  1  0
  9 11  2  0
M  ISO  4   1   1   3   3   8   4  10   2
V    1 *
V    3 *
V    8 *
V   10 *
M  END
>  <symbol>  (404) 
aMeSer

>  <m_Rgroups>  (404) 
[H],[OH],[H],[H],None,None

>  <m_abbr>  (404) 
aMeSer

>  <m_name>  (404) 
alpha-Methylserine

>  <m_type>  (404) 
aa

>  <m_subtype>  (404) 
modified

>  <m_chem_types>  (404) 
1:backbone_n,2:backbone_c,3:backbone_n_mod,4:hydroxyl

$$$$

     RDKit          2D

 11 10  0  0  0  0  0  0  0  0999 V2000
   -0.9253   -1.3512    0.0000 R   0  0  0  0  0  0  0  0  0  0  0  0
   -0.6709   -0.3842    0.0000 N   0  0  0  0  0  0  0  0  0  0  0  0
   -1.3813    0.3198    0.0000 R   0  0  0  0  0  0  0  0  0  0  0  0
    0.2939   -0.1208    0.0000 C   0  0  0  0  0  0  0  0  0  0  0  0
    0.0395   -1.0880    0.0000 C   0  0  0  0  0  0  0  0  0  0  0  0
    0.0305    0.8438    0.0000 C   0  0  0  0  0  0  0  0  0  0  0  0
   -0.9365    1.0982    0.0000 S   0  0  0  0  0  0  0  0  0  0  0  0
   -1.1997    2.0628    0.0000 R   0  0  0  0  0  0  0  0  0  0  0  0
    1.2609   -0.3752    0.0000 C   0  0  0  0  0  0  0  0  0  0  0  0
    1.5241   -1.3400    0.0000 R   0  0  0  0  0  0  0  0  0  0  0  0
    1.9647    0.3352    0.0000 O   0  0  0  0  0  0  0  0  0  0  0  0
  1  2  1  0
  2  3  1  0
  2  4  1  0
  4  5  1  0
  4  6  1  0
  6  7  1  0
  7  8  1  0
  4  9  1  0
  9 10  1  0
  9 11  2  0
M  ISO  4   1   1   3   3   8   4  10   2
V    1 *
V    3 *
V    8 *
V   10 *
M  END
>  <symbol>  (405) 
aMeCys

>  <m_Rgroups>  (405) 
[H],[OH],[H],[H],None,None

>  <m_abbr>  (405) 
aMeCys

>  <m_name>  (405) 
alpha-Methylcysteine

>  <m_type>  (405) 
aa

>  <m_subtype>  (405) 
modified

>  <m_chem_types>  (405) 
1:backbone_n,2:backbone_c,3:backbone_n_mod,4:thiol

$$$$

     RDKit          2D

 15 15  0  0  0  0  0  0  0  0999 V2000
   -1.3182   -1.1157    0.0000 R   0  0  0  0  0  0  0  0  0  0  0  0
   -0.3530   -1.3767    0.0000 N   0  0  0  0  0  0  0  0  0  0  0  0
   -0.0964   -2.3433    0.0000 R   0  0  0  0  0  0  0  0  0  0  0  0
    0.3556   -0.6711    0.0000 C   0  0  0  0  0  0  0  0  0  0  0  0
   -0.6098   -0.4101    0.0000 C   0  0  0  0  0  0  0  0  0  0  0  0
    0.6166    0.2941    0.0000 C   0  0  0  0  0  0  0  0  0  0  0  0
   -0.0890    1.0027    0.0000 C   0  0  0  0  0  0  0  0  0  0  0  0
   -1.0770    0.8485    0.0000 C   0  0  0  0  0  0  0  0  0  0  0  0
   -1.5290    1.7403    0.0000 N   0  0  0  0  0  0  0  0  0  0  0  0
   -0.8204    2.4459    0.0000 C   0  0  0  0  0  0  0  0  0  0  0  0
    0.0696    1.9901    0.0000 N   0  0  0  0  0  0  0  0  0  0  0  0
    0.9616    2.4423    0.0000 R   0  0  0  0  0  0  0  0  0  0  0  0
    1.0612   -1.3797    0.0000 C   0  0  0  0  0  0  0  0  0  0  0  0
    0.8004   -2.3449    0.0000 R   0  0  0  0  0  0  0  0  0  0  0  0
    2.0278   -1.1231    0.0000 O   0  0  0  0  0  0  0  0  0  0  0  0
  1  2  1  0
  2  3  1  0
  2  4  1  0
  4  5  1  0
  4  6  1  0
  6  7  1  0
  7  8  2  0
  8  9  1  0
  9 10  2  0
 10 11  1  0
 11 12  1  0
  4 13  1  0
 13 14  1  0
 13 15  2  0
 11  7  1  0
M  ISO  4   1   1   3   3  12   4  14   2
V    1 *
V    3 *
V   12 *
V   14 *
M  END
>  <symbol>  (406) 
aMeHis

>  <m_Rgroups>  (406) 
[H],[OH],[H],[H],None,None

>  <m_abbr>  (406) 
aMeHis

>  <m_name>  (406) 
alpha-Methylhistidine

>  <m_type>  (406) 
aa

>  <m_subtype>  (406) 
modified

>  <m_chem_types>  (406) 
1:backbone_n,2:backbone_c,3:backbone_n_mod,4:aromatic_nh

$$$$

     RDKit          2D

 12 11  0  0  0  0  0  0  0  0999 V2000
   -1.6640   -0.5373    0.0000 R   0  0  0  0  0  0  0  0  0  0  0  0
   -0.6986   -0.7979    0.0000 N   0  0  0  0  0  0  0  0  0  0  0  0
   -0.4414   -1.7643    0.0000 R   0  0  0  0  0  0  0  0  0  0  0  0
    0.0098   -0.0921    0.0000 C   0  0  0  0  0  0  0  0  0  0  0  0
   -0.9556    0.1685    0.0000 C   0  0  0  0  0  0  0  0  0  0  0  0
    0.7156   -0.8005    0.0000 C   0  0  0  0  0  0  0  0  0  0  0  0
    0.4550   -1.7659    0.0000 R   0  0  0  0  0  0  0  0  0  0  0  0
    1.6820   -0.5433    0.0000 O   0  0  0  0  0  0  0  0  0  0  0  0
    0.2704    0.8733    0.0000 C   0  0  0  0  0  0  0  0  0  0  0  0
    1.2368    1.1305    0.0000 C   0  0  0  0  0  0  0  0  0  0  0  0
   -0.4354    1.5817    0.0000 C   0  0  0  0  0  0  0  0  0  0  0  0
   -0.1750    2.5471    0.0000 C   0  0  0  0  0  0  0  0  0  0  0  0
  1  2  1  0
  2  3  1  0
  2  4  1  0
  4  5  1  0
  4  6  1  0
  6  7  1  0
  6  8  2  0
  4  9  1  0
  9 10  1  6
  9 11  1  0
 11 12  1  0
M  ISO  3   1   1   3   3   7   2
V    1 *
V    3 *
V    7 *
M  END
>  <symbol>  (407) 
aMeIle

>  <m_Rgroups>  (407) 
[H],[OH],[H],None,None,None

>  <m_abbr>  (407) 
aMeIle

>  <m_name>  (407) 
alpha-Methylisoleucine

>  <m_type>  (407) 
aa

>  <m_subtype>  (407) 
modified

>  <m_chem_types>  (407) 
1:backbone_n,2:backbone_c,3:backbone_n_mod

$$$$

     RDKit          2D

 12 11  0  0  0  0  0  0  0  0999 V2000
    0.8669    1.1660    0.0000 R   0  0  0  0  0  0  0  0  0  0  0  0
    0.0005    0.6666    0.0000 N   0  0  0  0  0  0  0  0  0  0  0  0
   -0.8651    1.1674    0.0000 R   0  0  0  0  0  0  0  0  0  0  0  0
   -0.0003   -0.3334    0.0000 C   0  0  0  0  0  0  0  0  0  0  0  0
   -0.8667   -0.8326    0.0000 C   0  0  0  0  0  0  0  0  0  0  0  0
   -1.7323   -0.3320    0.0000 C   0  0  0  0  0  0  0  0  0  0  0  0
   -2.5987   -0.8312    0.0000 C   0  0  0  0  0  0  0  0  0  0  0  0
   -1.7315    0.6680    0.0000 C   0  0  0  0  0  0  0  0  0  0  0  0
    0.8653   -0.8340    0.0000 C   0  0  0  0  0  0  0  0  0  0  0  0
    1.7317   -0.3348    0.0000 C   0  0  0  0  0  0  0  0  0  0  0  0
    2.5973   -0.8354    0.0000 R   0  0  0  0  0  0  0  0  0  0  0  0
    1.7325    0.6652    0.0000 O   0  0  0  0  0  0  0  0  0  0  0  0
  1  2  1  0
  2  3  1  0
  2  4  1  0
  4  5  1  6
  5  6  1  0
  6  7  1  0
  6  8  1  0
  4  9  1  0
  9 10  1  0
 10 11  1  0
 10 12  2  0
M  ISO  3   1   1   3   3  11   2
V    1 *
V    3 *
V   11 *
M  END
>  <symbol>  (408) 
b3hLeu

>  <m_Rgroups>  (408) 
[H],[OH],[H],None,None,None

>  <m_abbr>  (408) 
b3hLeu

>  <m_name>  (408) 
beta3-Homoleucine

>  <m_type>  (408) 
aa

>  <m_subtype>  (408) 
modified

>  <m_chem_types>  (408) 
1:backbone_n,2:backbone_c,3:backbone_n_mod

$$$$

     RDKit          2D

 11 10  0  0  0  0  0  0  0  0999 V2000
   -1.1775    1.6841    0.0000 R   0  0  0  0  0  0  0  0  0  0  0  0
   -1.1795    0.6841    0.0000 N   0  0  0  0  0  0  0  0  0  0  0  0
   -2.0465    0.1859    0.0000 R   0  0  0  0  0  0  0  0  0  0  0  0
   -0.3145    0.1825    0.0000 C   0  0  0  0  0  0  0  0  0  0  0  0
    0.5525    0.6807    0.0000 C   0  0  0  0  0  0  0  0  0  0  0  0
    1.4175    0.1789    0.0000 C   0  0  0  0  0  0  0  0  0  0  0  0
    0.5545    1.6807    0.0000 C   0  0  0  0  0  0  0  0  0  0  0  0
   -0.3165   -0.8175    0.0000 C   0  0  0  0  0  0  0  0  0  0  0  0
    0.5485   -1.3193    0.0000 C   0  0  0  0  0  0  0  0  0  0  0  0
    0.5465   -2.3193    0.0000 R   0  0  0  0  0  0  0  0  0  0  0  0
    1.4155   -0.8209    0.0000 O   0  0  0  0  0  0  0  0  0  0  0  0
  1  2  1  0
  2  3  1  0
  2  4  1  0
  4  5  1  0
  5  6  1  0
  5  7  1  0
  4  8  1  1
  8  9  1  0
  9 10  1  0
  9 11  2  0
M  ISO  3   1   1   3   3  10   2
V    1 *
V    3 *
V   10 *
M  END
>  <symbol>  (409) 
b3hVal

>  <m_Rgroups>  (409) 
[H],[OH],[H],None,None,None

>  <m_abbr>  (409) 
b3hVal

>  <m_name>  (409) 
beta3-Homovaline

>  <m_type>  (409) 
aa

>  <m_subtype>  (409) 
modified

>  <m_chem_types>  (409) 
1:backbone_n,2:backbone_c,3:backbone_n_mod

$$$$

     RDKit          2D

 17 17  0  0  0  0  0  0  0  0999 V2000
   -2.7848    1.8016    0.0000 R   0  0  0  0  0  0  0  0  0  0  0  0
   -1.5847    0.9017    0.0000 N   0  0  0  0  0  0  0  0  0  0  0  0
   -0.2054    1.4911    0.0000 R   0  0  0  0  0  0  0  0  0  0  0  0
   -1.7640   -0.5875    0.0000 C   0  0  0  0  0  0  0  0  0  0  0  0
   -3.1433   -1.1769    0.0000 C   0  0  0  0  0  0  0  0  0  0  0  0
   -4.3434   -0.2771    0.0000 C   0  0  0  0  0  0  0  0  0  0  0  0
   -5.7228   -0.8665    0.0000 R   0  0  0  0  0  0  0  0  0  0  0  0
   -4.1642    1.2122    0.0000 O   0  0  0  0  0  0  0  0  0  0  0  0
   -0.5639   -1.4874    0.0000 C   0  0  0  0  0  0  0  0  0  0  0  0
    0.8155   -0.8980    0.0000 C   0  0  0  0  0  0  0  0  0  0  0  0
    0.9948    0.5912    0.0000 C   0  0  0  0  0  0  0  0  0  0  0  0
    2.3741    1.1806    0.0000 C   0  0  0  0  0  0  0  0  0  0  0  0
    3.5742    0.2808    0.0000 C   0  0  0  0  0  0  0  0  0  0  0  0
    4.9536    0.8702    0.0000 O   0  0  0  0  0  0  0  0  0  0  0  0
    6.1537   -0.0297    0.0000 R   0  0  0  0  0  0  0  0  0  0  0  0
    3.3950   -1.2085    0.0000 C   0  0  0  0  0  0  0  0  0  0  0  0
    2.0156   -1.7979    0.0000 C   0  0  0  0  0  0  0  0  0  0  0  0
  1  2  1  0
  2  3  1  0
  2  4  1  0
  4  5  1  1
  5  6  1  0
  6  7  1  0
  6  8  2  0
  4  9  1  0
  9 10  1  0
 10 11  1  0
 11 12  2  0
 12 13  1  0
 13 14  1  0
 14 15  1  0
 13 16  2  0
 16 17  1  0
 17 10  2  0
M  ISO  4   1   1   3   3   7   2  15   4
V    1 *
V    3 *
V    7 *
V   15 *
M  END
>  <symbol>  (410) 
b3hTyr

>  <m_Rgroups>  (410) 
[H],[OH],[H],[H],None,None

>  <m_abbr>  (410) 
b3hTyr

>  <m_name>  (410) 
beta3-Homotyrosine

>  <m_type>  (410) 
aa

>  <m_subtype>  (410) 
modified

>  <m_chem_types>  (410) 
1:backbone_n,2:backbone_c,3:backbone_n_mod

$$$$

     RDKit          2D

 11 10  0  0  0  0  0  0  0  0999 V2000
   -3.0682    1.2990    0.0000 R   0  0  0  0  0  0  0  0  0  0  0  0
   -2.3182    0.0000    0.0000 N   0  0  0  0  0  0  0  0  0  0  0  0
   -3.0682   -1.2990    0.0000 R   0  0  0  0  0  0  0  0  0  0  0  0
   -0.8182    0.0000    0.0000 C   0  0  0  0  0  0  0  0  0  0  0  0
   -0.0682    1.2990    0.0000 C   0  0  0  0  0  0  0  0  0  0  0  0
    1.4318    1.2990    0.0000 O   0  0  0  0  0  0  0  0  0  0  0  0
    2.1818    2.5981    0.0000 R   0  0  0  0  0  0  0  0  0  0  0  0
   -0.0682   -1.2990    0.0000 C   0  0  0  0  0  0  0  0  0  0  0  0
    1.4318   -1.2990    0.0000 C   0  0  0  0  0  0  0  0  0  0  0  0
    2.1818   -2.5981    0.0000 R   0  0  0  0  0  0  0  0  0  0  0  0
    2.1818   -0.0000    0.0000 O   0  0  0  0  0  0  0  0  0  0  0  0
  1  2  1  0
  2  3  1  0
  2  4  1  0
  4  5  1  1
  5  6  1  0
  6  7  1  0
  4  8  1  0
  8  9  1  0
  9 10  1  0
  9 11  2  0
M  ISO  4   1   1   3   3   7   4  10   2
V    1 *
V    3 *
V    7 *
V   10 *
M  END
>  <symbol>  (411) 
b3hSer

>  <m_Rgroups>  (411) 
[H],[OH],[H],[H],None,None

>  <m_abbr>  (411) 
b3hSer

>  <m_name>  (411) 
beta3-Homoserine

>  <m_type>  (411) 
aa

>  <m_subtype>  (411) 
modified

>  <m_chem_types>  (411) 
1:backbone_n,2:backbone_c,3:backbone_n_mod

$$$$

     RDKit          2D

 15 14  0  0  0  0  0  0  0  0999 V2000
   -4.8121   -0.6112    0.0000 R   0  0  0  0  0  0  0  0  0  0  0  0
   -3.4412   -1.2199    0.0000 N   0  0  0  0  0  0  0  0  0  0  0  0
   -3.2829   -2.7115    0.0000 R   0  0  0  0  0  0  0  0  0  0  0  0
   -2.2285   -0.3370    0.0000 C   0  0  0  0  0  0  0  0  0  0  0  0
   -0.8576   -0.9458    0.0000 C   0  0  0  0  0  0  0  0  0  0  0  0
    0.3550   -0.0629    0.0000 C   0  0  0  0  0  0  0  0  0  0  0  0
    1.7260   -0.6716    0.0000 C   0  0  0  0  0  0  0  0  0  0  0  0
    2.9386    0.2113    0.0000 C   0  0  0  0  0  0  0  0  0  0  0  0
    4.3095   -0.3975    0.0000 N   0  0  0  0  0  0  0  0  0  0  0  0
    5.5222    0.4854    0.0000 R   0  0  0  0  0  0  0  0  0  0  0  0
    4.4678   -1.8891    0.0000 R   0  0  0  0  0  0  0  0  0  0  0  0
   -2.3868    1.1546    0.0000 C   0  0  0  0  0  0  0  0  0  0  0  0
   -1.1742    2.0375    0.0000 C   0  0  0  0  0  0  0  0  0  0  0  0
   -1.3324    3.5291    0.0000 R   0  0  0  0  0  0  0  0  0  0  0  0
    0.1968    1.4287    0.0000 O   0  0  0  0  0  0  0  0  0  0  0  0
  1  2  1  0
  2  3  1  0
  2  4  1  0
  4  5  1  6
  5  6  1  0
  6  7  1  0
  7  8  1  0
  8  9  1  0
  9 10  1  0
  9 11  1  0
  4 12  1  0
 12 13  1  0
 13 14  1  0
 13 15  2  0
M  ISO  5   1   1   3   3  10   4  11   5  14   2
V    1 *
V    3 *
V   10 *
V   11 *
V   14 *
M  END
>  <symbol>  (412) 
b3hLys

>  <m_Rgroups>  (412) 
[H],[OH],[H],[H],[H],None

>  <m_abbr>  (412) 
b3hLys

>  <m_name>  (412) 
beta3-Homolysine

>  <m_type>  (412) 
aa

>  <m_subtype>  (412) 
modified

>  <m_chem_types>  (412) 
1:backbone_n,2:backbone_c,3:backbone_n_mod,4:amine_primary

$$$$

     RDKit          2D

 13 12  0  0  0  0  0  0  0  0999 V2000
   -3.8971   -0.1731    0.0000 R   0  0  0  0  0  0  0  0  0  0  0  0
   -2.5981   -0.9231    0.0000 N   0  0  0  0  0  0  0  0  0  0  0  0
   -2.5981   -2.4231    0.0000 R   0  0  0  0  0  0  0  0  0  0  0  0
   -1.2990   -0.1731    0.0000 C   0  0  0  0  0  0  0  0  0  0  0  0
   -0.0000   -0.9231    0.0000 C   0  0  0  0  0  0  0  0  0  0  0  0
    1.2990   -0.1731    0.0000 C   0  0  0  0  0  0  0  0  0  0  0  0
    2.5981   -0.9231    0.0000 C   0  0  0  0  0  0  0  0  0  0  0  0
    3.8971   -0.1731    0.0000 R   0  0  0  0  0  0  0  0  0  0  0  0
    2.5981   -2.4231    0.0000 O   0  0  0  0  0  0  0  0  0  0  0  0
   -1.2990    1.3269    0.0000 C   0  0  0  0  0  0  0  0  0  0  0  0
   -0.0000    2.0769    0.0000 C   0  0  0  0  0  0  0  0  0  0  0  0
    0.0000    3.5769    0.0000 R   0  0  0  0  0  0  0  0  0  0  0  0
    1.2990    1.3269    0.0000 O   0  0  0  0  0  0  0  0  0  0  0  0
  1  2  1  0
  2  3  1  0
  2  4  1  0
  4  5  1  6
  5  6  1  0
  6  7  1  0
  7  8  1  0
  7  9  2  0
  4 10  1  0
 10 11  1  0
 11 12  1  0
 11 13  2  0
M  ISO  4   1   1   3   3   8   4  12   2
V    1 *
V    3 *
V    8 *
V   12 *
M  END
>  <symbol>  (413) 
b3hGlu

>  <m_Rgroups>  (413) 
[H],[OH],[H],[OH],None,None

>  <m_abbr>  (413) 
b3hGlu

>  <m_name>  (413) 
beta3-Homoglutamic acid

>  <m_type>  (413) 
aa

>  <m_subtype>  (413) 
modified

>  <m_chem_types>  (413) 
1:backbone_n,2:backbone_c,3:backbone_n_mod,4:carboxyl

$$$$

     RDKit          2D

 12 11  0  0  0  0  0  0  0  0999 V2000
   -2.3098   -1.2902    0.0000 R   0  0  0  0  0  0  0  0  0  0  0  0
   -0.8410   -1.5946    0.0000 N   0  0  0  0  0  0  0  0  0  0  0  0
   -0.3702   -3.0188    0.0000 R   0  0  0  0  0  0  0  0  0  0  0  0
    0.1569   -0.4747    0.0000 C   0  0  0  0  0  0  0  0  0  0  0  0
    1.6257   -0.7791    0.0000 C   0  0  0  0  0  0  0  0  0  0  0  0
    2.6237    0.3408    0.0000 C   0  0  0  0  0  0  0  0  0  0  0  0
    4.0925    0.0364    0.0000 R   0  0  0  0  0  0  0  0  0  0  0  0
    2.1529    1.7650    0.0000 O   0  0  0  0  0  0  0  0  0  0  0  0
   -0.3139    0.9495    0.0000 C   0  0  0  0  0  0  0  0  0  0  0  0
   -1.7827    1.2538    0.0000 C   0  0  0  0  0  0  0  0  0  0  0  0
   -2.7807    0.1340    0.0000 R   0  0  0  0  0  0  0  0  0  0  0  0
   -2.2535    2.6780    0.0000 O   0  0  0  0  0  0  0  0  0  0  0  0
  1  2  1  0
  2  3  1  0
  2  4  1  0
  4  5  1  0
  5  6  1  0
  6  7  1  0
  6  8  2  0
  4  9  1  0
  9 10  1  0
 10 11  1  0
 10 12  2  0
M  ISO  4   1   1   3   3   7   2  11   4
V    1 *
V    3 *
V    7 *
V   11 *
M  END
>  <symbol>  (414) 
b3hAsp

>  <m_Rgroups>  (414) 
[H], [OH], [H], [OH]

>  <m_abbr>  (414) 
b3hAsp

>  <m_name>  (414) 
beta3-Homoaspartic acid

>  <m_type>  (414) 
aa

>  <m_subtype>  (414) 
modified

>  <m_chem_types>  (414) 
1:backbone_n,2:backbone_c,3:backbone_n_mod,4:carboxyl

$$$$

     RDKit          2D

  9  8  0  0  0  0  0  0  0  0999 V2000
    2.1170    0.1095    0.0000 R   0  0  0  0  0  0  0  0  0  0  0  0
    1.2506   -0.3899    0.0000 N   0  0  0  0  0  0  0  0  0  0  0  0
    1.2498   -1.3899    0.0000 R   0  0  0  0  0  0  0  0  0  0  0  0
    0.3850    0.1107    0.0000 C   0  0  0  0  0  0  0  0  0  0  0  0
    0.3858    1.1107    0.0000 C   0  0  0  0  0  0  0  0  0  0  0  0
   -0.4814   -0.3885    0.0000 C   0  0  0  0  0  0  0  0  0  0  0  0
   -1.3470    0.1121    0.0000 C   0  0  0  0  0  0  0  0  0  0  0  0
   -2.2134   -0.3871    0.0000 R   0  0  0  0  0  0  0  0  0  0  0  0
   -1.3462    1.1121    0.0000 O   0  0  0  0  0  0  0  0  0  0  0  0
  1  2  1  0
  2  3  1  0
  2  4  1  0
  4  5  1  6
  4  6  1  0
  6  7  1  0
  7  8  1  0
  7  9  2  0
M  ISO  3   1   1   3   3   8   2
V    1 *
V    3 *
V    8 *
M  END
>  <symbol>  (415) 
b3hAla

>  <m_Rgroups>  (415) 
[H],[OH],[H],None,None,None

>  <m_abbr>  (415) 
b3hAla

>  <m_name>  (415) 
beta3-Homoalanine

>  <m_type>  (415) 
aa

>  <m_subtype>  (415) 
modified

>  <m_chem_types>  (415) 
1:backbone_n,2:backbone_c,3:backbone_n_mod

$$$$

     RDKit          2D

 12 11  0  0  0  0  0  0  0  0999 V2000
   -0.7242    1.2485    0.0000 R   0  0  0  0  0  0  0  0  0  0  0  0
    0.1428    0.7503    0.0000 N   0  0  0  0  0  0  0  0  0  0  0  0
    1.0078    1.2519    0.0000 R   0  0  0  0  0  0  0  0  0  0  0  0
    0.1448   -0.2497    0.0000 C   0  0  0  0  0  0  0  0  0  0  0  0
   -0.7202   -0.7515    0.0000 C   0  0  0  0  0  0  0  0  0  0  0  0
   -1.5872   -0.2531    0.0000 C   0  0  0  0  0  0  0  0  0  0  0  0
   -2.4522   -0.7549    0.0000 C   0  0  0  0  0  0  0  0  0  0  0  0
   -3.3192   -0.2567    0.0000 C   0  0  0  0  0  0  0  0  0  0  0  0
    1.0118   -0.7481    0.0000 C   0  0  0  0  0  0  0  0  0  0  0  0
    1.8768   -0.2463    0.0000 C   0  0  0  0  0  0  0  0  0  0  0  0
    2.7440   -0.7445    0.0000 R   0  0  0  0  0  0  0  0  0  0  0  0
    1.8748    0.7537    0.0000 O   0  0  0  0  0  0  0  0  0  0  0  0
  1  2  1  0
  2  3  1  0
  2  4  1  0
  4  5  1  6
  5  6  1  0
  6  7  1  0
  7  8  1  0
  4  9  1  0
  9 10  1  0
 10 11  1  0
 10 12  2  0
M  ISO  3   1   1   3   3  11   2
V    1 *
V    3 *
V   11 *
M  END
>  <symbol>  (416) 
b3hNle

>  <m_Rgroups>  (416) 
[H],[OH],[H],None,None,None

>  <m_abbr>  (416) 
b3hNle

>  <m_name>  (416) 
beta3-Homonorleucine

>  <m_type>  (416) 
aa

>  <m_subtype>  (416) 
modified

>  <m_chem_types>  (416) 
1:backbone_n,2:backbone_c,3:backbone_n_mod

$$$$

     RDKit          2D

 10 10  0  0  0  0  0  0  0  0999 V2000
   -0.7621   -1.5117    0.0000 R   0  0  0  0  0  0  0  0  0  0  0  0
   -0.6045   -0.5241    0.0000 N   0  0  0  0  0  0  0  0  0  0  0  0
   -1.3107    0.1839    0.0000 C   0  0  0  0  0  0  0  0  0  0  0  0
   -0.8557    1.0743    0.0000 C   0  0  0  0  0  0  0  0  0  0  0  0
   -1.3085    1.9659    0.0000 F   0  0  0  0  0  0  0  0  0  0  0  0
    0.1319    0.9165    0.0000 C   0  0  0  0  0  0  0  0  0  0  0  0
    0.2871   -0.0713    0.0000 C   0  0  0  0  0  0  0  0  0  0  0  0
    1.1775   -0.5263    0.0000 C   0  0  0  0  0  0  0  0  0  0  0  0
    1.2287   -1.5249    0.0000 R   0  0  0  0  0  0  0  0  0  0  0  0
    2.0167    0.0173    0.0000 O   0  0  0  0  0  0  0  0  0  0  0  0
  1  2  1  0
  2  3  1  0
  3  4  1  0
  4  5  1  1
  4  6  1  0
  6  7  1  0
  7  8  1  1
  8  9  1  0
  8 10  2  0
  7  2  1  0
M  ISO  2   1   1   9   2
V    1 *
V    9 *
M  END
>  <symbol>  (417) 
Pro_4F_t

>  <m_Rgroups>  (417) 
[H],[OH],None,None,None,None

>  <m_abbr>  (417) 
Pro_4F_t

>  <m_name>  (417) 
trans-4-Fluoroproline (2S,4R)

>  <m_type>  (417) 
aa

>  <m_subtype>  (417) 
modified

>  <m_chem_types>  (417) 
1:backbone_n,2:backbone_c

$$$$

     RDKit          2D

 10 10  0  0  0  0  0  0  0  0999 V2000
   -0.7621   -1.5117    0.0000 R   0  0  0  0  0  0  0  0  0  0  0  0
   -0.6045   -0.5241    0.0000 N   0  0  0  0  0  0  0  0  0  0  0  0
   -1.3107    0.1839    0.0000 C   0  0  0  0  0  0  0  0  0  0  0  0
   -0.8557    1.0743    0.0000 C   0  0  0  0  0  0  0  0  0  0  0  0
   -1.3085    1.9659    0.0000 F   0  0  0  0  0  0  0  0  0  0  0  0
    0.1319    0.9165    0.0000 C   0  0  0  0  0  0  0  0  0  0  0  0
    0.2871   -0.0713    0.0000 C   0  0  0  0  0  0  0  0  0  0  0  0
    1.1775   -0.5263    0.0000 C   0  0  0  0  0  0  0  0  0  0  0  0
    1.2287   -1.5249    0.0000 R   0  0  0  0  0  0  0  0  0  0  0  0
    2.0167    0.0173    0.0000 O   0  0  0  0  0  0  0  0  0  0  0  0
  1  2  1  0
  2  3  1  0
  3  4  1  0
  4  5  1  6
  4  6  1  0
  6  7  1  0
  7  8  1  1
  8  9  1  0
  8 10  2  0
  7  2  1  0
M  ISO  2   1   1   9   2
V    1 *
V    9 *
M  END
>  <symbol>  (418) 
Pro_4F_c

>  <m_Rgroups>  (418) 
[H],[OH],None,None,None,None

>  <m_abbr>  (418) 
Pro_4F_c

>  <m_name>  (418) 
cis-4-Fluoroproline (2S,4S)

>  <m_type>  (418) 
aa

>  <m_subtype>  (418) 
modified

>  <m_chem_types>  (418) 
1:backbone_n,2:backbone_c

$$$$

     RDKit          2D

 13 14  0  0  0  0  0  0  0  0999 V2000
   -0.1680    1.7363    0.0000 R   0  0  0  0  0  0  0  0  0  0  0  0
   -0.0136    0.7483    0.0000 N   0  0  0  0  0  0  0  0  0  0  0  0
   -0.7220    0.0427    0.0000 C   0  0  0  0  0  0  0  0  0  0  0  0
   -1.7206    0.0971    0.0000 C   0  0  0  0  0  0  0  0  0  0  0  0
   -2.2670   -0.7405    0.0000 C   0  0  0  0  0  0  0  0  0  0  0  0
   -1.8148   -1.6323    0.0000 C   0  0  0  0  0  0  0  0  0  0  0  0
   -0.8162   -1.6867    0.0000 C   0  0  0  0  0  0  0  0  0  0  0  0
   -0.2700   -0.8493    0.0000 C   0  0  0  0  0  0  0  0  0  0  0  0
    0.7180   -0.6947    0.0000 C   0  0  0  0  0  0  0  0  0  0  0  0
    0.8766    0.2925    0.0000 C   0  0  0  0  0  0  0  0  0  0  0  0
    1.7684    0.7447    0.0000 C   0  0  0  0  0  0  0  0  0  0  0  0
    2.6060    0.1985    0.0000 R   0  0  0  0  0  0  0  0  0  0  0  0
    1.8228    1.7433    0.0000 O   0  0  0  0  0  0  0  0  0  0  0  0
  1  2  1  0
  2  3  1  0
  3  4  2  0
  4  5  1  0
  5  6  2  0
  6  7  1  0
  7  8  2  0
  8  9  1  0
  9 10  1  0
 10 11  1  6
 11 12  1  0
 11 13  2  0
 10  2  1  0
  8  3  1  0
M  ISO  2   1   1  12   2
V    1 *
V   12 *
M  END
>  <symbol>  (419) 
Ind

>  <m_Rgroups>  (419) 
[H],[OH],None,None,None,None

>  <m_abbr>  (419) 
Ind

>  <m_name>  (419) 
L-Indoline-2-carboxylic acid

>  <m_type>  (419) 
aa

>  <m_subtype>  (419) 
modified

>  <m_chem_types>  (419) 
1:backbone_n,2:backbone_c

$$$$

     RDKit          2D

 13 12  0  0  0  0  0  0  0  0999 V2000
   -1.2610   -2.3486    0.0000 R   0  0  0  0  0  0  0  0  0  0  0  0
   -1.2630   -1.3486    0.0000 N   0  0  0  0  0  0  0  0  0  0  0  0
   -2.1302   -0.8504    0.0000 R   0  0  0  0  0  0  0  0  0  0  0  0
   -0.3980   -0.8470    0.0000 C   0  0  0  0  0  0  0  0  0  0  0  0
   -0.4000    0.1530    0.0000 C   0  0  0  0  0  0  0  0  0  0  0  0
    0.4650    0.6548    0.0000 C   0  0  0  0  0  0  0  0  0  0  0  0
    0.4630    1.6548    0.0000 C   0  0  0  0  0  0  0  0  0  0  0  0
   -0.4042    2.1530    0.0000 O   0  0  0  0  0  0  0  0  0  0  0  0
    1.3280    2.1564    0.0000 O   0  0  0  0  0  0  0  0  0  0  0  0
    1.3258    3.1564    0.0000 C   0  0  0  0  0  0  0  0  0  0  0  0
    0.4690   -1.3452    0.0000 C   0  0  0  0  0  0  0  0  0  0  0  0
    1.3340   -0.8434    0.0000 R   0  0  0  0  0  0  0  0  0  0  0  0
    0.4710   -2.3452    0.0000 O   0  0  0  0  0  0  0  0  0  0  0  0
  1  2  1  0
  2  3  1  0
  2  4  1  0
  4  5  1  1
  5  6  1  0
  6  7  1  0
  7  8  2  0
  7  9  1  0
  9 10  1  0
  4 11  1  0
 11 12  1  0
 11 13  2  0
M  ISO  3   1   1   3   3  12   2
V    1 *
V    3 *
V   12 *
M  END
>  <symbol>  (420) 
Glu_OMe

>  <m_Rgroups>  (420) 
[H],[OH],[H],None,None,None

>  <m_abbr>  (420) 
Glu_OMe

>  <m_name>  (420) 
L-Glu gamma-methyl ester

>  <m_type>  (420) 
aa

>  <m_subtype>  (420) 
modified

>  <m_chem_types>  (420) 
1:backbone_n,2:backbone_c,3:backbone_n_mod

$$$$

     RDKit          2D

 16 15  0  0  0  0  0  0  0  0999 V2000
   -1.4698   -3.0257    0.0000 R   0  0  0  0  0  0  0  0  0  0  0  0
   -1.4718   -2.0259    0.0000 N   0  0  0  0  0  0  0  0  0  0  0  0
   -2.3388   -1.5275    0.0000 R   0  0  0  0  0  0  0  0  0  0  0  0
   -0.6068   -1.5241    0.0000 C   0  0  0  0  0  0  0  0  0  0  0  0
   -0.6088   -0.5241    0.0000 C   0  0  0  0  0  0  0  0  0  0  0  0
    0.2562   -0.0225    0.0000 C   0  0  0  0  0  0  0  0  0  0  0  0
    0.2542    0.9775    0.0000 C   0  0  0  0  0  0  0  0  0  0  0  0
   -0.6128    1.4759    0.0000 O   0  0  0  0  0  0  0  0  0  0  0  0
    1.1192    1.4793    0.0000 O   0  0  0  0  0  0  0  0  0  0  0  0
    1.1172    2.4793    0.0000 C   0  0  0  0  0  0  0  0  0  0  0  0
    0.1172    2.4773    0.0000 C   0  0  0  0  0  0  0  0  0  0  0  0
    0.6154    3.3443    0.0000 C   0  0  0  0  0  0  0  0  0  0  0  0
    1.9822    2.9809    0.0000 C   0  0  0  0  0  0  0  0  0  0  0  0
    0.2602   -2.0223    0.0000 C   0  0  0  0  0  0  0  0  0  0  0  0
    1.1252   -1.5207    0.0000 R   0  0  0  0  0  0  0  0  0  0  0  0
    0.2622   -3.0223    0.0000 O   0  0  0  0  0  0  0  0  0  0  0  0
  1  2  1  0
  2  3  1  0
  2  4  1  0
  4  5  1  1
  5  6  1  0
  6  7  1  0
  7  8  2  0
  7  9  1  0
  9 10  1  0
 10 11  1  0
 10 12  1  0
 10 13  1  0
  4 14  1  0
 14 15  1  0
 14 16  2  0
M  ISO  3   1   1   3   3  15   2
V    1 *
V    3 *
V   15 *
M  END
>  <symbol>  (421) 
Glu_OtBu

>  <m_Rgroups>  (421) 
[H],[OH],[H],None,None,None

>  <m_abbr>  (421) 
Glu_OtBu

>  <m_name>  (421) 
L-Glu gamma-tert-butyl ester

>  <m_type>  (421) 
aa

>  <m_subtype>  (421) 
modified

>  <m_chem_types>  (421) 
1:backbone_n,2:backbone_c,3:backbone_n_mod

$$$$

     RDKit          2D

 19 19  0  0  0  0  0  0  0  0999 V2000
   -2.2259   -3.6622    0.0000 R   0  0  0  0  0  0  0  0  0  0  0  0
   -2.2281   -2.6624    0.0000 N   0  0  0  0  0  0  0  0  0  0  0  0
   -3.0951   -2.1640    0.0000 R   0  0  0  0  0  0  0  0  0  0  0  0
   -1.3631   -2.1606    0.0000 C   0  0  0  0  0  0  0  0  0  0  0  0
   -1.3651   -1.1606    0.0000 C   0  0  0  0  0  0  0  0  0  0  0  0
   -0.5001   -0.6588    0.0000 C   0  0  0  0  0  0  0  0  0  0  0  0
   -0.5021    0.3410    0.0000 C   0  0  0  0  0  0  0  0  0  0  0  0
   -1.3691    0.8394    0.0000 O   0  0  0  0  0  0  0  0  0  0  0  0
    0.3629    0.8428    0.0000 O   0  0  0  0  0  0  0  0  0  0  0  0
    0.3609    1.8428    0.0000 C   0  0  0  0  0  0  0  0  0  0  0  0
    1.2259    2.3444    0.0000 C   0  0  0  0  0  0  0  0  0  0  0  0
    1.2241    3.3444    0.0000 C   0  0  0  0  0  0  0  0  0  0  0  0
    2.0889    3.8462    0.0000 C   0  0  0  0  0  0  0  0  0  0  0  0
    2.9561    3.3480    0.0000 C   0  0  0  0  0  0  0  0  0  0  0  0
    2.9579    2.3480    0.0000 C   0  0  0  0  0  0  0  0  0  0  0  0
    2.0929    1.8462    0.0000 C   0  0  0  0  0  0  0  0  0  0  0  0
   -0.4959   -2.6588    0.0000 C   0  0  0  0  0  0  0  0  0  0  0  0
    0.3691   -2.1572    0.0000 R   0  0  0  0  0  0  0  0  0  0  0  0
   -0.4939   -3.6588    0.0000 O   0  0  0  0  0  0  0  0  0  0  0  0
  1  2  1  0
  2  3  1  0
  2  4  1  0
  4  5  1  1
  5  6  1  0
  6  7  1  0
  7  8  2  0
  7  9  1  0
  9 10  1  0
 10 11  1  0
 11 12  2  0
 12 13  1  0
 13 14  2  0
 14 15  1  0
 15 16  2  0
  4 17  1  0
 17 18  1  0
 17 19  2  0
 16 11  1  0
M  ISO  3   1   1   3   3  18   2
V    1 *
V    3 *
V   18 *
M  END
>  <symbol>  (422) 
Glu_OBn

>  <m_Rgroups>  (422) 
[H],[OH],[H],None,None,None

>  <m_abbr>  (422) 
Glu_OBn

>  <m_name>  (422) 
L-Glu gamma-benzyl ester

>  <m_type>  (422) 
aa

>  <m_subtype>  (422) 
modified

>  <m_chem_types>  (422) 
1:backbone_n,2:backbone_c,3:backbone_n_mod

$$$$

     RDKit          2D

 15 14  0  0  0  0  0  0  0  0999 V2000
   -1.6539    2.4456    0.0000 R   0  0  0  0  0  0  0  0  0  0  0  0
   -1.6559    1.4456    0.0000 N   0  0  0  0  0  0  0  0  0  0  0  0
   -2.5229    0.9472    0.0000 R   0  0  0  0  0  0  0  0  0  0  0  0
   -0.7909    0.9438    0.0000 C   0  0  0  0  0  0  0  0  0  0  0  0
   -0.7929   -0.0562    0.0000 C   0  0  0  0  0  0  0  0  0  0  0  0
    0.0721   -0.5578    0.0000 C   0  0  0  0  0  0  0  0  0  0  0  0
    0.9391   -0.0596    0.0000 O   0  0  0  0  0  0  0  0  0  0  0  0
    0.0701   -1.5578    0.0000 O   0  0  0  0  0  0  0  0  0  0  0  0
    0.9351   -2.0596    0.0000 C   0  0  0  0  0  0  0  0  0  0  0  0
    1.4369   -1.1946    0.0000 C   0  0  0  0  0  0  0  0  0  0  0  0
    1.9351   -2.0616    0.0000 C   0  0  0  0  0  0  0  0  0  0  0  0
    0.9331   -3.0596    0.0000 C   0  0  0  0  0  0  0  0  0  0  0  0
    0.0761    1.4420    0.0000 C   0  0  0  0  0  0  0  0  0  0  0  0
    0.9411    0.9404    0.0000 R   0  0  0  0  0  0  0  0  0  0  0  0
    0.0781    2.4420    0.0000 O   0  0  0  0  0  0  0  0  0  0  0  0
  1  2  1  0
  2  3  1  0
  2  4  1  0
  4  5  1  6
  5  6  1  0
  6  7  2  0
  6  8  1  0
  8  9  1  0
  9 10  1  0
  9 11  1  0
  9 12  1  0
  4 13  1  0
 13 14  1  0
 13 15  2  0
M  ISO  3   1   1   3   3  14   2
V    1 *
V    3 *
V   14 *
M  END
>  <symbol>  (423) 
Asp_OtBu

>  <m_Rgroups>  (423) 
[H],[OH],[H],None,None,None

>  <m_abbr>  (423) 
Asp_OtBu

>  <m_name>  (423) 
L-Asp beta-tert-butyl ester

>  <m_type>  (423) 
aa

>  <m_subtype>  (423) 
modified

>  <m_chem_types>  (423) 
1:backbone_n,2:backbone_c,3:backbone_n_mod

$$$$

     RDKit          2D

 18 18  0  0  0  0  0  0  0  0999 V2000
   -1.7251    3.4479    0.0000 R   0  0  0  0  0  0  0  0  0  0  0  0
   -1.7271    2.4479    0.0000 N   0  0  0  0  0  0  0  0  0  0  0  0
   -2.5943    1.9495    0.0000 R   0  0  0  0  0  0  0  0  0  0  0  0
   -0.8621    1.9461    0.0000 C   0  0  0  0  0  0  0  0  0  0  0  0
   -0.8641    0.9461    0.0000 C   0  0  0  0  0  0  0  0  0  0  0  0
    0.0009    0.4445    0.0000 C   0  0  0  0  0  0  0  0  0  0  0  0
    0.8679    0.9427    0.0000 O   0  0  0  0  0  0  0  0  0  0  0  0
   -0.0011   -0.5555    0.0000 O   0  0  0  0  0  0  0  0  0  0  0  0
    0.8639   -1.0573    0.0000 C   0  0  0  0  0  0  0  0  0  0  0  0
    0.8617   -2.0571    0.0000 C   0  0  0  0  0  0  0  0  0  0  0  0
   -0.0053   -2.5555    0.0000 C   0  0  0  0  0  0  0  0  0  0  0  0
   -0.0071   -3.5555    0.0000 C   0  0  0  0  0  0  0  0  0  0  0  0
    0.8577   -4.0573    0.0000 C   0  0  0  0  0  0  0  0  0  0  0  0
    1.7249   -3.5589    0.0000 C   0  0  0  0  0  0  0  0  0  0  0  0
    1.7267   -2.5589    0.0000 C   0  0  0  0  0  0  0  0  0  0  0  0
    0.0049    2.4443    0.0000 C   0  0  0  0  0  0  0  0  0  0  0  0
    0.8699    1.9427    0.0000 R   0  0  0  0  0  0  0  0  0  0  0  0
    0.0069    3.4443    0.0000 O   0  0  0  0  0  0  0  0  0  0  0  0
  1  2  1  0
  2  3  1  0
  2  4  1  0
  4  5  1  6
  5  6  1  0
  6  7  2  0
  6  8  1  0
  8  9  1  0
  9 10  1  0
 10 11  2  0
 11 12  1  0
 12 13  2  0
 13 14  1  0
 14 15  2  0
  4 16  1  0
 16 17  1  0
 16 18  2  0
 15 10  1  0
M  ISO  3   1   1   3   3  17   2
V    1 *
V    3 *
V   17 *
M  END
>  <symbol>  (424) 
Asp_OBn

>  <m_Rgroups>  (424) 
[H],[OH],[H],None,None,None

>  <m_abbr>  (424) 
Asp_OBn

>  <m_name>  (424) 
L-Asp beta-benzyl ester

>  <m_type>  (424) 
aa

>  <m_subtype>  (424) 
modified

>  <m_chem_types>  (424) 
1:backbone_n,2:backbone_c,3:backbone_n_mod

$$$$

     RDKit          2D

  9  8  0  0  0  0  0  0  0  0999 V2000
   -2.5984   -0.4980    0.0000 R   0  0  0  0  0  0  0  0  0  0  0  0
   -1.7320    0.0014    0.0000 N   0  0  0  0  0  0  0  0  0  0  0  0
   -1.7312    1.0014    0.0000 R   0  0  0  0  0  0  0  0  0  0  0  0
   -0.8664   -0.4994    0.0000 C   0  0  0  0  0  0  0  0  0  0  0  0
   -0.0000    0.0000    0.0000 C   0  0  0  0  0  0  0  0  0  0  0  0
    0.8656   -0.5006    0.0000 C   0  0  0  0  0  0  0  0  0  0  0  0
    1.7320   -0.0014    0.0000 C   0  0  0  0  0  0  0  0  0  0  0  0
    2.5976   -0.5020    0.0000 R   0  0  0  0  0  0  0  0  0  0  0  0
    1.7328    0.9986    0.0000 O   0  0  0  0  0  0  0  0  0  0  0  0
  1  2  1  0
  2  3  1  0
  2  4  1  0
  4  5  1  0
  5  6  1  0
  6  7  1  0
  7  8  1  0
  7  9  2  0
M  ISO  3   1   1   3   3   8   2
V    1 *
V    3 *
V    8 *
M  END
>  <symbol>  (425) 
GABA

>  <m_Rgroups>  (425) 
[H],[OH],[H],None,None,None

>  <m_abbr>  (425) 
GABA

>  <m_name>  (425) 
gamma-Aminobutyric acid (4-aminobutyric acid)

>  <m_type>  (425) 
linker

>  <m_subtype>  (425) 
linker

>  <m_chem_types>  (425) 
1:backbone_n,2:backbone_c,3:backbone_n_mod

$$$$

     RDKit          2D

 10  9  0  0  0  0  0  0  0  0999 V2000
    3.0312    0.2476    0.0000 R   0  0  0  0  0  0  0  0  0  0  0  0
    2.1648   -0.2518    0.0000 N   0  0  0  0  0  0  0  0  0  0  0  0
    2.1640   -1.2518    0.0000 R   0  0  0  0  0  0  0  0  0  0  0  0
    1.2992    0.2490    0.0000 C   0  0  0  0  0  0  0  0  0  0  0  0
    0.4328   -0.2504    0.0000 C   0  0  0  0  0  0  0  0  0  0  0  0
   -0.4328    0.2504    0.0000 C   0  0  0  0  0  0  0  0  0  0  0  0
   -1.2992   -0.2490    0.0000 C   0  0  0  0  0  0  0  0  0  0  0  0
   -2.1648    0.2518    0.0000 C   0  0  0  0  0  0  0  0  0  0  0  0
   -3.0312   -0.2476    0.0000 R   0  0  0  0  0  0  0  0  0  0  0  0
   -2.1640    1.2518    0.0000 O   0  0  0  0  0  0  0  0  0  0  0  0
  1  2  1  0
  2  3  1  0
  2  4  1  0
  4  5  1  0
  5  6  1  0
  6  7  1  0
  7  8  1  0
  8  9  1  0
  8 10  2  0
M  ISO  3   1   1   3   3   9   2
V    1 *
V    3 *
V    9 *
M  END
>  <symbol>  (426) 
5Ava

>  <m_Rgroups>  (426) 
[H],[OH],[H],None,None,None

>  <m_abbr>  (426) 
5Ava

>  <m_name>  (426) 
5-Aminopentanoic acid (delta-aminovaleric acid)

>  <m_type>  (426) 
linker

>  <m_subtype>  (426) 
linker

>  <m_chem_types>  (426) 
1:backbone_n,2:backbone_c,3:backbone_n_mod

$$$$

     RDKit          2D

 11 10  0  0  0  0  0  0  0  0999 V2000
   -3.4644   -0.4518    0.0000 R   0  0  0  0  0  0  0  0  0  0  0  0
   -2.5980    0.0476    0.0000 N   0  0  0  0  0  0  0  0  0  0  0  0
   -2.5972    1.0476    0.0000 R   0  0  0  0  0  0  0  0  0  0  0  0
   -1.7324   -0.4532    0.0000 C   0  0  0  0  0  0  0  0  0  0  0  0
   -0.8660    0.0462    0.0000 C   0  0  0  0  0  0  0  0  0  0  0  0
   -0.0004   -0.4546    0.0000 C   0  0  0  0  0  0  0  0  0  0  0  0
    0.8660    0.0448    0.0000 C   0  0  0  0  0  0  0  0  0  0  0  0
    1.7316   -0.4560    0.0000 C   0  0  0  0  0  0  0  0  0  0  0  0
    2.5980    0.0434    0.0000 C   0  0  0  0  0  0  0  0  0  0  0  0
    3.4636   -0.4574    0.0000 R   0  0  0  0  0  0  0  0  0  0  0  0
    2.5988    1.0434    0.0000 O   0  0  0  0  0  0  0  0  0  0  0  0
  1  2  1  0
  2  3  1  0
  2  4  1  0
  4  5  1  0
  5  6  1  0
  6  7  1  0
  7  8  1  0
  8  9  1  0
  9 10  1  0
  9 11  2  0
M  ISO  3   1   1   3   3  10   2
V    1 *
V    3 *
V   10 *
M  END
>  <symbol>  (427) 
6Ahx

>  <m_Rgroups>  (427) 
[H],[OH],[H],None,None,None

>  <m_abbr>  (427) 
6Ahx

>  <m_name>  (427) 
6-Aminohexanoic acid (epsilon-aminocaproic acid)

>  <m_type>  (427) 
linker

>  <m_subtype>  (427) 
linker

>  <m_chem_types>  (427) 
1:backbone_n,2:backbone_c,3:backbone_n_mod

$$$$

     RDKit          2D

 12 11  0  0  0  0  0  0  0  0999 V2000
    3.8972    0.2468    0.0000 R   0  0  0  0  0  0  0  0  0  0  0  0
    3.0308   -0.2524    0.0000 N   0  0  0  0  0  0  0  0  0  0  0  0
    3.0300   -1.2524    0.0000 R   0  0  0  0  0  0  0  0  0  0  0  0
    2.1652    0.2482    0.0000 C   0  0  0  0  0  0  0  0  0  0  0  0
    1.2988   -0.2510    0.0000 C   0  0  0  0  0  0  0  0  0  0  0  0
    0.4332    0.2496    0.0000 C   0  0  0  0  0  0  0  0  0  0  0  0
   -0.4332   -0.2496    0.0000 C   0  0  0  0  0  0  0  0  0  0  0  0
   -1.2988    0.2510    0.0000 C   0  0  0  0  0  0  0  0  0  0  0  0
   -2.1652   -0.2482    0.0000 C   0  0  0  0  0  0  0  0  0  0  0  0
   -3.0308    0.2524    0.0000 C   0  0  0  0  0  0  0  0  0  0  0  0
   -3.8972   -0.2468    0.0000 R   0  0  0  0  0  0  0  0  0  0  0  0
   -3.0300    1.2524    0.0000 O   0  0  0  0  0  0  0  0  0  0  0  0
  1  2  1  0
  2  3  1  0
  2  4  1  0
  4  5  1  0
  5  6  1  0
  6  7  1  0
  7  8  1  0
  8  9  1  0
  9 10  1  0
 10 11  1  0
 10 12  2  0
M  ISO  3   1   1   3   3  11   2
V    1 *
V    3 *
V   11 *
M  END
>  <symbol>  (428) 
7Ahp

>  <m_Rgroups>  (428) 
[H],[OH],[H],None,None,None

>  <m_abbr>  (428) 
7Ahp

>  <m_name>  (428) 
7-Aminoheptanoic acid

>  <m_type>  (428) 
linker

>  <m_subtype>  (428) 
linker

>  <m_chem_types>  (428) 
1:backbone_n,2:backbone_c,3:backbone_n_mod

$$$$

     RDKit          2D

 13 12  0  0  0  0  0  0  0  0999 V2000
   -4.3303   -0.4196    0.0000 R   0  0  0  0  0  0  0  0  0  0  0  0
   -3.4639    0.0796    0.0000 N   0  0  0  0  0  0  0  0  0  0  0  0
   -3.4631    1.0796    0.0000 R   0  0  0  0  0  0  0  0  0  0  0  0
   -2.5983   -0.4210    0.0000 C   0  0  0  0  0  0  0  0  0  0  0  0
   -1.7319    0.0784    0.0000 C   0  0  0  0  0  0  0  0  0  0  0  0
   -0.8663   -0.4224    0.0000 C   0  0  0  0  0  0  0  0  0  0  0  0
    0.0001    0.0770    0.0000 C   0  0  0  0  0  0  0  0  0  0  0  0
    0.8657   -0.4238    0.0000 C   0  0  0  0  0  0  0  0  0  0  0  0
    1.7321    0.0756    0.0000 C   0  0  0  0  0  0  0  0  0  0  0  0
    2.5977   -0.4252    0.0000 C   0  0  0  0  0  0  0  0  0  0  0  0
    3.4641    0.0742    0.0000 C   0  0  0  0  0  0  0  0  0  0  0  0
    4.3297   -0.4266    0.0000 R   0  0  0  0  0  0  0  0  0  0  0  0
    3.4649    1.0742    0.0000 O   0  0  0  0  0  0  0  0  0  0  0  0
  1  2  1  0
  2  3  1  0
  2  4  1  0
  4  5  1  0
  5  6  1  0
  6  7  1  0
  7  8  1  0
  8  9  1  0
  9 10  1  0
 10 11  1  0
 11 12  1  0
 11 13  2  0
M  ISO  3   1   1   3   3  12   2
V    1 *
V    3 *
V   12 *
M  END
>  <symbol>  (429) 
8Ado

>  <m_Rgroups>  (429) 
[H],[OH],[H],None,None,None

>  <m_abbr>  (429) 
8Ado

>  <m_name>  (429) 
8-Aminooctanoic acid

>  <m_type>  (429) 
linker

>  <m_subtype>  (429) 
linker

>  <m_chem_types>  (429) 
1:backbone_n,2:backbone_c,3:backbone_n_mod

$$$$

     RDKit          2D

 16 15  0  0  0  0  0  0  0  0999 V2000
    5.6292    0.2456    0.0000 R   0  0  0  0  0  0  0  0  0  0  0  0
    4.7628   -0.2538    0.0000 N   0  0  0  0  0  0  0  0  0  0  0  0
    4.7620   -1.2538    0.0000 R   0  0  0  0  0  0  0  0  0  0  0  0
    3.8972    0.2468    0.0000 C   0  0  0  0  0  0  0  0  0  0  0  0
    3.0308   -0.2524    0.0000 C   0  0  0  0  0  0  0  0  0  0  0  0
    2.1652    0.2482    0.0000 C   0  0  0  0  0  0  0  0  0  0  0  0
    1.2988   -0.2510    0.0000 C   0  0  0  0  0  0  0  0  0  0  0  0
    0.4332    0.2496    0.0000 C   0  0  0  0  0  0  0  0  0  0  0  0
   -0.4332   -0.2496    0.0000 C   0  0  0  0  0  0  0  0  0  0  0  0
   -1.2988    0.2510    0.0000 C   0  0  0  0  0  0  0  0  0  0  0  0
   -2.1652   -0.2482    0.0000 C   0  0  0  0  0  0  0  0  0  0  0  0
   -3.0308    0.2524    0.0000 C   0  0  0  0  0  0  0  0  0  0  0  0
   -3.8972   -0.2468    0.0000 C   0  0  0  0  0  0  0  0  0  0  0  0
   -4.7628    0.2538    0.0000 C   0  0  0  0  0  0  0  0  0  0  0  0
   -5.6292   -0.2456    0.0000 R   0  0  0  0  0  0  0  0  0  0  0  0
   -4.7620    1.2538    0.0000 O   0  0  0  0  0  0  0  0  0  0  0  0
  1  2  1  0
  2  3  1  0
  2  4  1  0
  4  5  1  0
  5  6  1  0
  6  7  1  0
  7  8  1  0
  8  9  1  0
  9 10  1  0
 10 11  1  0
 11 12  1  0
 12 13  1  0
 13 14  1  0
 14 15  1  0
 14 16  2  0
M  ISO  3   1   1   3   3  15   2
V    1 *
V    3 *
V   15 *
M  END
>  <symbol>  (430) 
11Aun

>  <m_Rgroups>  (430) 
[H],[OH],[H],None,None,None

>  <m_abbr>  (430) 
11Aun

>  <m_name>  (430) 
11-Aminoundecanoic acid

>  <m_type>  (430) 
linker

>  <m_subtype>  (430) 
linker

>  <m_chem_types>  (430) 
1:backbone_n,2:backbone_c,3:backbone_n_mod

$$$$

     RDKit          2D

 10  9  0  0  0  0  0  0  0  0999 V2000
    3.0312    0.2476    0.0000 R   0  0  0  0  0  0  0  0  0  0  0  0
    2.1648   -0.2518    0.0000 N   0  0  0  0  0  0  0  0  0  0  0  0
    2.1640   -1.2518    0.0000 R   0  0  0  0  0  0  0  0  0  0  0  0
    1.2992    0.2490    0.0000 C   0  0  0  0  0  0  0  0  0  0  0  0
    0.4328   -0.2504    0.0000 C   0  0  0  0  0  0  0  0  0  0  0  0
   -0.4328    0.2504    0.0000 O   0  0  0  0  0  0  0  0  0  0  0  0
   -1.2992   -0.2490    0.0000 C   0  0  0  0  0  0  0  0  0  0  0  0
   -2.1648    0.2518    0.0000 C   0  0  0  0  0  0  0  0  0  0  0  0
   -3.0312   -0.2476    0.0000 R   0  0  0  0  0  0  0  0  0  0  0  0
   -2.1640    1.2518    0.0000 O   0  0  0  0  0  0  0  0  0  0  0  0
  1  2  1  0
  2  3  1  0
  2  4  1  0
  4  5  1  0
  5  6  1  0
  6  7  1  0
  7  8  1  0
  8  9  1  0
  8 10  2  0
M  ISO  3   1   1   3   3   9   2
V    1 *
V    3 *
V    9 *
M  END
>  <symbol>  (431) 
OEG1

>  <m_Rgroups>  (431) 
[H],[OH],[H],None,None,None

>  <m_abbr>  (431) 
OEG1

>  <m_name>  (431) 
5-Amino-3-oxapentanoic acid (mini-PEG 1-unit)

>  <m_type>  (431) 
linker

>  <m_subtype>  (431) 
linker

>  <m_chem_types>  (431) 
1:backbone_n,2:backbone_c,3:backbone_n_mod

$$$$

     RDKit          2D

 16 15  0  0  0  0  0  0  0  0999 V2000
    5.6292    0.2456    0.0000 R   0  0  0  0  0  0  0  0  0  0  0  0
    4.7628   -0.2538    0.0000 N   0  0  0  0  0  0  0  0  0  0  0  0
    4.7620   -1.2538    0.0000 R   0  0  0  0  0  0  0  0  0  0  0  0
    3.8972    0.2468    0.0000 C   0  0  0  0  0  0  0  0  0  0  0  0
    3.0308   -0.2524    0.0000 C   0  0  0  0  0  0  0  0  0  0  0  0
    2.1652    0.2482    0.0000 O   0  0  0  0  0  0  0  0  0  0  0  0
    1.2988   -0.2510    0.0000 C   0  0  0  0  0  0  0  0  0  0  0  0
    0.4332    0.2496    0.0000 C   0  0  0  0  0  0  0  0  0  0  0  0
   -0.4332   -0.2496    0.0000 O   0  0  0  0  0  0  0  0  0  0  0  0
   -1.2988    0.2510    0.0000 C   0  0  0  0  0  0  0  0  0  0  0  0
   -2.1652   -0.2482    0.0000 C   0  0  0  0  0  0  0  0  0  0  0  0
   -3.0308    0.2524    0.0000 O   0  0  0  0  0  0  0  0  0  0  0  0
   -3.8972   -0.2468    0.0000 C   0  0  0  0  0  0  0  0  0  0  0  0
   -4.7628    0.2538    0.0000 C   0  0  0  0  0  0  0  0  0  0  0  0
   -5.6292   -0.2456    0.0000 R   0  0  0  0  0  0  0  0  0  0  0  0
   -4.7620    1.2538    0.0000 O   0  0  0  0  0  0  0  0  0  0  0  0
  1  2  1  0
  2  3  1  0
  2  4  1  0
  4  5  1  0
  5  6  1  0
  6  7  1  0
  7  8  1  0
  8  9  1  0
  9 10  1  0
 10 11  1  0
 11 12  1  0
 12 13  1  0
 13 14  1  0
 14 15  1  0
 14 16  2  0
M  ISO  3   1   1   3   3  15   2
V    1 *
V    3 *
V   15 *
M  END
>  <symbol>  (432) 
OEG3

>  <m_Rgroups>  (432) 
[H],[OH],[H],None,None,None

>  <m_abbr>  (432) 
OEG3

>  <m_name>  (432) 
11-Amino-3,6,9-trioxaundecanoic acid (mini-PEG 3-unit)

>  <m_type>  (432) 
linker

>  <m_subtype>  (432) 
linker

>  <m_chem_types>  (432) 
1:backbone_n,2:backbone_c,3:backbone_n_mod

$$$$

     RDKit          2D

 19 18  0  0  0  0  0  0  0  0999 V2000
   -6.9283   -0.3630    0.0000 R   0  0  0  0  0  0  0  0  0  0  0  0
   -6.0619    0.1364    0.0000 N   0  0  0  0  0  0  0  0  0  0  0  0
   -6.0611    1.1364    0.0000 R   0  0  0  0  0  0  0  0  0  0  0  0
   -5.1963   -0.3642    0.0000 C   0  0  0  0  0  0  0  0  0  0  0  0
   -4.3299    0.1350    0.0000 C   0  0  0  0  0  0  0  0  0  0  0  0
   -3.4643   -0.3656    0.0000 O   0  0  0  0  0  0  0  0  0  0  0  0
   -2.5979    0.1336    0.0000 C   0  0  0  0  0  0  0  0  0  0  0  0
   -1.7323   -0.3670    0.0000 C   0  0  0  0  0  0  0  0  0  0  0  0
   -0.8659    0.1322    0.0000 O   0  0  0  0  0  0  0  0  0  0  0  0
   -0.0003   -0.3684    0.0000 C   0  0  0  0  0  0  0  0  0  0  0  0
    0.8661    0.1308    0.0000 C   0  0  0  0  0  0  0  0  0  0  0  0
    1.7317   -0.3698    0.0000 O   0  0  0  0  0  0  0  0  0  0  0  0
    2.5981    0.1296    0.0000 C   0  0  0  0  0  0  0  0  0  0  0  0
    3.4637   -0.3712    0.0000 C   0  0  0  0  0  0  0  0  0  0  0  0
    4.3301    0.1282    0.0000 O   0  0  0  0  0  0  0  0  0  0  0  0
    5.1957   -0.3726    0.0000 C   0  0  0  0  0  0  0  0  0  0  0  0
    6.0621    0.1268    0.0000 C   0  0  0  0  0  0  0  0  0  0  0  0
    6.9277   -0.3740    0.0000 R   0  0  0  0  0  0  0  0  0  0  0  0
    6.0629    1.1268    0.0000 O   0  0  0  0  0  0  0  0  0  0  0  0
  1  2  1  0
  2  3  1  0
  2  4  1  0
  4  5  1  0
  5  6  1  0
  6  7  1  0
  7  8  1  0
  8  9  1  0
  9 10  1  0
 10 11  1  0
 11 12  1  0
 12 13  1  0
 13 14  1  0
 14 15  1  0
 15 16  1  0
 16 17  1  0
 17 18  1  0
 17 19  2  0
M  ISO  3   1   1   3   3  18   2
V    1 *
V    3 *
V   18 *
M  END
>  <symbol>  (433) 
OEG4

>  <m_Rgroups>  (433) 
[H],[OH],[H],None,None,None

>  <m_abbr>  (433) 
OEG4

>  <m_name>  (433) 
14-Amino-3,6,9,12-tetraoxatetradecanoic acid (mini-PEG 4-unit)

>  <m_type>  (433) 
linker

>  <m_subtype>  (433) 
linker

>  <m_chem_types>  (433) 
1:backbone_n,2:backbone_c,3:backbone_n_mod

$$$$

     RDKit          2D

 18 17  0  0  0  0  0  0  0  0999 V2000
    9.7206    0.7564    0.0000 R   0  0  0  0  0  0  0  0  0  0  0  0
    8.4520   -0.0439    0.0000 C   0  0  0  0  0  0  0  0  0  0  0  0
    8.5107   -1.5427    0.0000 O   0  0  0  0  0  0  0  0  0  0  0  0
    7.1245    0.6546    0.0000 C   0  0  0  0  0  0  0  0  0  0  0  0
    5.8559   -0.1457    0.0000 C   0  0  0  0  0  0  0  0  0  0  0  0
    4.5284    0.5529    0.0000 C   0  0  0  0  0  0  0  0  0  0  0  0
    3.2598   -0.2475    0.0000 C   0  0  0  0  0  0  0  0  0  0  0  0
    1.9324    0.4511    0.0000 C   0  0  0  0  0  0  0  0  0  0  0  0
    0.6637   -0.3493    0.0000 C   0  0  0  0  0  0  0  0  0  0  0  0
   -0.6637    0.3493    0.0000 C   0  0  0  0  0  0  0  0  0  0  0  0
   -1.9324   -0.4511    0.0000 C   0  0  0  0  0  0  0  0  0  0  0  0
   -3.2598    0.2475    0.0000 C   0  0  0  0  0  0  0  0  0  0  0  0
   -4.5284   -0.5529    0.0000 C   0  0  0  0  0  0  0  0  0  0  0  0
   -5.8559    0.1457    0.0000 C   0  0  0  0  0  0  0  0  0  0  0  0
   -7.1245   -0.6546    0.0000 C   0  0  0  0  0  0  0  0  0  0  0  0
   -8.4520    0.0439    0.0000 C   0  0  0  0  0  0  0  0  0  0  0  0
   -9.7206   -0.7564    0.0000 R   0  0  0  0  0  0  0  0  0  0  0  0
   -8.5107    1.5427    0.0000 O   0  0  0  0  0  0  0  0  0  0  0  0
  1  2  1  0
  2  3  2  0
  2  4  1  0
  4  5  1  0
  5  6  1  0
  6  7  1  0
  7  8  1  0
  8  9  1  0
  9 10  1  0
 10 11  1  0
 11 12  1  0
 12 13  1  0
 13 14  1  0
 14 15  1  0
 15 16  1  0
 16 17  1  0
 16 18  2  0
M  ISO  2   1   2  17   4
V    1 *
V   17 *
M  END
>  <symbol>  (434) 
C14dAcid

>  <m_Rgroups>  (434) 
None, [OH], None, [OH]

>  <m_abbr>  (434) 
C14dAcid

>  <m_name>  (434) 
Tetradecanedioic acid cap

>  <m_type>  (434) 
cap

>  <m_subtype>  (434) 
cap

>  <m_chem_types>  (434) 
2:backbone_c

$$$$

     RDKit          2D

 20 19  0  0  0  0  0  0  0  0999 V2000
   11.0240    0.7300    0.0000 R   0  0  0  0  0  0  0  0  0  0  0  0
    9.7498   -0.0614    0.0000 C   0  0  0  0  0  0  0  0  0  0  0  0
    9.7981   -1.5606    0.0000 O   0  0  0  0  0  0  0  0  0  0  0  0
    8.4273    0.6464    0.0000 C   0  0  0  0  0  0  0  0  0  0  0  0
    7.1531   -0.1450    0.0000 C   0  0  0  0  0  0  0  0  0  0  0  0
    5.8306    0.5629    0.0000 C   0  0  0  0  0  0  0  0  0  0  0  0
    4.5563   -0.2285    0.0000 C   0  0  0  0  0  0  0  0  0  0  0  0
    3.2339    0.4793    0.0000 C   0  0  0  0  0  0  0  0  0  0  0  0
    1.9596   -0.3121    0.0000 C   0  0  0  0  0  0  0  0  0  0  0  0
    0.6371    0.3957    0.0000 C   0  0  0  0  0  0  0  0  0  0  0  0
   -0.6371   -0.3957    0.0000 C   0  0  0  0  0  0  0  0  0  0  0  0
   -1.9596    0.3121    0.0000 C   0  0  0  0  0  0  0  0  0  0  0  0
   -3.2339   -0.4793    0.0000 C   0  0  0  0  0  0  0  0  0  0  0  0
   -4.5563    0.2285    0.0000 C   0  0  0  0  0  0  0  0  0  0  0  0
   -5.8306   -0.5629    0.0000 C   0  0  0  0  0  0  0  0  0  0  0  0
   -7.1531    0.1450    0.0000 C   0  0  0  0  0  0  0  0  0  0  0  0
   -8.4273   -0.6464    0.0000 C   0  0  0  0  0  0  0  0  0  0  0  0
   -9.7498    0.0614    0.0000 C   0  0  0  0  0  0  0  0  0  0  0  0
  -11.0240   -0.7300    0.0000 R   0  0  0  0  0  0  0  0  0  0  0  0
   -9.7981    1.5606    0.0000 O   0  0  0  0  0  0  0  0  0  0  0  0
  1  2  1  0
  2  3  2  0
  2  4  1  0
  4  5  1  0
  5  6  1  0
  6  7  1  0
  7  8  1  0
  8  9  1  0
  9 10  1  0
 10 11  1  0
 11 12  1  0
 12 13  1  0
 13 14  1  0
 14 15  1  0
 15 16  1  0
 16 17  1  0
 17 18  1  0
 18 19  1  0
 18 20  2  0
M  ISO  2   1   2  19   4
V    1 *
V   19 *
M  END
>  <symbol>  (435) 
C16dAcid

>  <m_Rgroups>  (435) 
None, [OH], None, [OH]

>  <m_abbr>  (435) 
C16dAcid

>  <m_name>  (435) 
Hexadecanedioic acid cap

>  <m_type>  (435) 
cap

>  <m_subtype>  (435) 
cap

>  <m_chem_types>  (435) 
2:backbone_c

$$$$

     RDKit          2D

 26 25  0  0  0  0  0  0  0  0999 V2000
   14.9287    0.6687    0.0000 R   0  0  0  0  0  0  0  0  0  0  0  0
   13.6446   -0.1067    0.0000 C   0  0  0  0  0  0  0  0  0  0  0  0
   13.6741   -1.6064    0.0000 O   0  0  0  0  0  0  0  0  0  0  0  0
   12.3311    0.6176    0.0000 C   0  0  0  0  0  0  0  0  0  0  0  0
   11.0471   -0.1578    0.0000 C   0  0  0  0  0  0  0  0  0  0  0  0
    9.7335    0.5665    0.0000 C   0  0  0  0  0  0  0  0  0  0  0  0
    8.4495   -0.2089    0.0000 C   0  0  0  0  0  0  0  0  0  0  0  0
    7.1360    0.5154    0.0000 C   0  0  0  0  0  0  0  0  0  0  0  0
    5.8519   -0.2600    0.0000 C   0  0  0  0  0  0  0  0  0  0  0  0
    4.5384    0.4643    0.0000 C   0  0  0  0  0  0  0  0  0  0  0  0
    3.2543   -0.3111    0.0000 C   0  0  0  0  0  0  0  0  0  0  0  0
    1.9408    0.4132    0.0000 C   0  0  0  0  0  0  0  0  0  0  0  0
    0.6568   -0.3622    0.0000 C   0  0  0  0  0  0  0  0  0  0  0  0
   -0.6568    0.3622    0.0000 C   0  0  0  0  0  0  0  0  0  0  0  0
   -1.9408   -0.4132    0.0000 C   0  0  0  0  0  0  0  0  0  0  0  0
   -3.2543    0.3111    0.0000 C   0  0  0  0  0  0  0  0  0  0  0  0
   -4.5384   -0.4643    0.0000 C   0  0  0  0  0  0  0  0  0  0  0  0
   -5.8519    0.2600    0.0000 C   0  0  0  0  0  0  0  0  0  0  0  0
   -7.1360   -0.5154    0.0000 C   0  0  0  0  0  0  0  0  0  0  0  0
   -8.4495    0.2089    0.0000 C   0  0  0  0  0  0  0  0  0  0  0  0
   -9.7335   -0.5665    0.0000 C   0  0  0  0  0  0  0  0  0  0  0  0
  -11.0471    0.1578    0.0000 C   0  0  0  0  0  0  0  0  0  0  0  0
  -12.3311   -0.6176    0.0000 C   0  0  0  0  0  0  0  0  0  0  0  0
  -13.6446    0.1067    0.0000 C   0  0  0  0  0  0  0  0  0  0  0  0
  -14.9287   -0.6687    0.0000 R   0  0  0  0  0  0  0  0  0  0  0  0
  -13.6741    1.6064    0.0000 O   0  0  0  0  0  0  0  0  0  0  0  0
  1  2  1  0
  2  3  2  0
  2  4  1  0
  4  5  1  0
  5  6  1  0
  6  7  1  0
  7  8  1  0
  8  9  1  0
  9 10  1  0
 10 11  1  0
 11 12  1  0
 12 13  1  0
 13 14  1  0
 14 15  1  0
 15 16  1  0
 16 17  1  0
 17 18  1  0
 18 19  1  0
 19 20  1  0
 20 21  1  0
 21 22  1  0
 22 23  1  0
 23 24  1  0
 24 25  1  0
 24 26  2  0
M  ISO  2   1   2  25   4
V    1 *
V   25 *
M  END
>  <symbol>  (436) 
C22dAcid

>  <m_Rgroups>  (436) 
None, [OH], None, [OH]

>  <m_abbr>  (436) 
C22dAcid

>  <m_name>  (436) 
Docosanedioic acid cap

>  <m_type>  (436) 
cap

>  <m_subtype>  (436) 
cap

>  <m_chem_types>  (436) 
2:backbone_c

$$$$

     RDKit          2D

 16 15  0  0  0  0  0  0  0  0999 V2000
    8.5907    0.6964    0.0000 R   0  0  0  0  0  0  0  0  0  0  0  0
    7.3120   -0.0877    0.0000 C   0  0  0  0  0  0  0  0  0  0  0  0
    7.3517   -1.5872    0.0000 O   0  0  0  0  0  0  0  0  0  0  0  0
    5.9935    0.6276    0.0000 C   0  0  0  0  0  0  0  0  0  0  0  0
    4.7148   -0.1565    0.0000 C   0  0  0  0  0  0  0  0  0  0  0  0
    3.3964    0.5588    0.0000 C   0  0  0  0  0  0  0  0  0  0  0  0
    2.1176   -0.2253    0.0000 C   0  0  0  0  0  0  0  0  0  0  0  0
    0.7992    0.4901    0.0000 C   0  0  0  0  0  0  0  0  0  0  0  0
   -0.4795   -0.2940    0.0000 C   0  0  0  0  0  0  0  0  0  0  0  0
   -1.7980    0.4213    0.0000 C   0  0  0  0  0  0  0  0  0  0  0  0
   -3.0767   -0.3628    0.0000 C   0  0  0  0  0  0  0  0  0  0  0  0
   -4.3951    0.3525    0.0000 C   0  0  0  0  0  0  0  0  0  0  0  0
   -5.6739   -0.4316    0.0000 C   0  0  0  0  0  0  0  0  0  0  0  0
   -6.9923    0.2838    0.0000 C   0  0  0  0  0  0  0  0  0  0  0  0
   -8.2710   -0.5004    0.0000 C   0  0  0  0  0  0  0  0  0  0  0  0
   -9.5895    0.2150    0.0000 C   0  0  0  0  0  0  0  0  0  0  0  0
  1  2  1  0
  2  3  2  0
  2  4  1  0
  4  5  1  0
  5  6  1  0
  6  7  1  0
  7  8  1  0
  8  9  1  0
  9 10  1  0
 10 11  1  0
 11 12  1  0
 12 13  1  0
 13 14  1  0
 14 15  1  0
 15 16  1  0
M  ISO  1   1   2
V    1 *
M  END
>  <symbol>  (437) 
Myr

>  <m_Rgroups>  (437) 
None,[OH],None,None,None,None

>  <m_abbr>  (437) 
Myr

>  <m_name>  (437) 
Myristoyl cap (C14 monoacid)

>  <m_type>  (437) 
cap

>  <m_subtype>  (437) 
cap

>  <m_chem_types>  (437) 
2:backbone_c

$$$$

     RDKit          2D

 18 17  0  0  0  0  0  0  0  0999 V2000
    9.8751    0.6698    0.0000 R   0  0  0  0  0  0  0  0  0  0  0  0
    8.5924   -0.1078    0.0000 C   0  0  0  0  0  0  0  0  0  0  0  0
    8.6245   -1.6075    0.0000 O   0  0  0  0  0  0  0  0  0  0  0  0
    7.2776    0.6142    0.0000 C   0  0  0  0  0  0  0  0  0  0  0  0
    5.9949   -0.1634    0.0000 C   0  0  0  0  0  0  0  0  0  0  0  0
    4.6801    0.5586    0.0000 C   0  0  0  0  0  0  0  0  0  0  0  0
    3.3974   -0.2190    0.0000 C   0  0  0  0  0  0  0  0  0  0  0  0
    2.0826    0.5030    0.0000 C   0  0  0  0  0  0  0  0  0  0  0  0
    0.7999   -0.2746    0.0000 C   0  0  0  0  0  0  0  0  0  0  0  0
   -0.5149    0.4474    0.0000 C   0  0  0  0  0  0  0  0  0  0  0  0
   -1.7976   -0.3302    0.0000 C   0  0  0  0  0  0  0  0  0  0  0  0
   -3.1124    0.3918    0.0000 C   0  0  0  0  0  0  0  0  0  0  0  0
   -4.3950   -0.3858    0.0000 C   0  0  0  0  0  0  0  0  0  0  0  0
   -5.7098    0.3362    0.0000 C   0  0  0  0  0  0  0  0  0  0  0  0
   -6.9925   -0.4414    0.0000 C   0  0  0  0  0  0  0  0  0  0  0  0
   -8.3073    0.2806    0.0000 C   0  0  0  0  0  0  0  0  0  0  0  0
   -9.5900   -0.4970    0.0000 C   0  0  0  0  0  0  0  0  0  0  0  0
  -10.9048    0.2250    0.0000 C   0  0  0  0  0  0  0  0  0  0  0  0
  1  2  1  0
  2  3  2  0
  2  4  1  0
  4  5  1  0
  5  6  1  0
  6  7  1  0
  7  8  1  0
  8  9  1  0
  9 10  1  0
 10 11  1  0
 11 12  1  0
 12 13  1  0
 13 14  1  0
 14 15  1  0
 15 16  1  0
 16 17  1  0
 17 18  1  0
M  ISO  1   1   2
V    1 *
M  END
>  <symbol>  (438) 
Pal

>  <m_Rgroups>  (438) 
None,[OH],None,None,None,None

>  <m_abbr>  (438) 
Pal

>  <m_name>  (438) 
Palmitoyl cap (C16 monoacid)

>  <m_type>  (438) 
cap

>  <m_subtype>  (438) 
cap

>  <m_chem_types>  (438) 
2:backbone_c

$$$$

     RDKit          2D

 20 19  0  0  0  0  0  0  0  0999 V2000
   11.1620    0.6473    0.0000 R   0  0  0  0  0  0  0  0  0  0  0  0
    9.8764   -0.1255    0.0000 C   0  0  0  0  0  0  0  0  0  0  0  0
    9.9029   -1.6253    0.0000 O   0  0  0  0  0  0  0  0  0  0  0  0
    8.5644    0.6014    0.0000 C   0  0  0  0  0  0  0  0  0  0  0  0
    7.2788   -0.1714    0.0000 C   0  0  0  0  0  0  0  0  0  0  0  0
    5.9667    0.5555    0.0000 C   0  0  0  0  0  0  0  0  0  0  0  0
    4.6811   -0.2173    0.0000 C   0  0  0  0  0  0  0  0  0  0  0  0
    3.3690    0.5096    0.0000 C   0  0  0  0  0  0  0  0  0  0  0  0
    2.0834   -0.2632    0.0000 C   0  0  0  0  0  0  0  0  0  0  0  0
    0.7714    0.4637    0.0000 C   0  0  0  0  0  0  0  0  0  0  0  0
   -0.5142   -0.3091    0.0000 C   0  0  0  0  0  0  0  0  0  0  0  0
   -1.8263    0.4178    0.0000 C   0  0  0  0  0  0  0  0  0  0  0  0
   -3.1119   -0.3550    0.0000 C   0  0  0  0  0  0  0  0  0  0  0  0
   -4.4240    0.3719    0.0000 C   0  0  0  0  0  0  0  0  0  0  0  0
   -5.7096   -0.4009    0.0000 C   0  0  0  0  0  0  0  0  0  0  0  0
   -7.0217    0.3260    0.0000 C   0  0  0  0  0  0  0  0  0  0  0  0
   -8.3072   -0.4468    0.0000 C   0  0  0  0  0  0  0  0  0  0  0  0
   -9.6193    0.2801    0.0000 C   0  0  0  0  0  0  0  0  0  0  0  0
  -10.9049   -0.4927    0.0000 C   0  0  0  0  0  0  0  0  0  0  0  0
  -12.2170    0.2342    0.0000 C   0  0  0  0  0  0  0  0  0  0  0  0
  1  2  1  0
  2  3  2  0
  2  4  1  0
  4  5  1  0
  5  6  1  0
  6  7  1  0
  7  8  1  0
  8  9  1  0
  9 10  1  0
 10 11  1  0
 11 12  1  0
 12 13  1  0
 13 14  1  0
 14 15  1  0
 15 16  1  0
 16 17  1  0
 17 18  1  0
 18 19  1  0
 19 20  1  0
M  ISO  1   1   2
V    1 *
M  END
>  <symbol>  (439) 
Ste

>  <m_Rgroups>  (439) 
None,[OH],None,None,None,None

>  <m_abbr>  (439) 
Ste

>  <m_name>  (439) 
Stearoyl cap (C18 monoacid)

>  <m_type>  (439) 
cap

>  <m_subtype>  (439) 
cap

>  <m_chem_types>  (439) 
2:backbone_c

$$$$

     RDKit          2D

 20 19  0  0  0  0  0  0  0  0999 V2000
   -9.6296   -2.8251    0.0000 R   0  0  0  0  0  0  0  0  0  0  0  0
   -8.8057   -1.5716    0.0000 C   0  0  0  0  0  0  0  0  0  0  0  0
   -9.4793   -0.2314    0.0000 O   0  0  0  0  0  0  0  0  0  0  0  0
   -7.3082   -1.6584    0.0000 C   0  0  0  0  0  0  0  0  0  0  0  0
   -6.4843   -0.4049    0.0000 C   0  0  0  0  0  0  0  0  0  0  0  0
   -4.9868   -0.4917    0.0000 C   0  0  0  0  0  0  0  0  0  0  0  0
   -4.1629    0.7617    0.0000 C   0  0  0  0  0  0  0  0  0  0  0  0
   -2.6654    0.6750    0.0000 C   0  0  0  0  0  0  0  0  0  0  0  0
   -1.8415    1.9284    0.0000 C   0  0  0  0  0  0  0  0  0  0  0  0
   -0.3440    1.8416    0.0000 C   0  0  0  0  0  0  0  0  0  0  0  0
    0.4799    3.0951    0.0000 C   0  0  0  0  0  0  0  0  0  0  0  0
    1.9774    3.0083    0.0000 C   0  0  0  0  0  0  0  0  0  0  0  0
    2.6510    1.6681    0.0000 C   0  0  0  0  0  0  0  0  0  0  0  0
    4.1484    1.5813    0.0000 C   0  0  0  0  0  0  0  0  0  0  0  0
    4.8220    0.2410    0.0000 C   0  0  0  0  0  0  0  0  0  0  0  0
    6.3195    0.1542    0.0000 C   0  0  0  0  0  0  0  0  0  0  0  0
    6.9931   -1.1860    0.0000 C   0  0  0  0  0  0  0  0  0  0  0  0
    8.4906   -1.2728    0.0000 C   0  0  0  0  0  0  0  0  0  0  0  0
    9.1642   -2.6131    0.0000 C   0  0  0  0  0  0  0  0  0  0  0  0
   10.6617   -2.6998    0.0000 C   0  0  0  0  0  0  0  0  0  0  0  0
  1  2  1  0
  2  3  2  0
  2  4  1  0
  4  5  1  0
  5  6  1  0
  6  7  1  0
  7  8  1  0
  8  9  1  0
  9 10  1  0
 10 11  1  0
 11 12  2  0
 12 13  1  0
 13 14  1  0
 14 15  1  0
 15 16  1  0
 16 17  1  0
 17 18  1  0
 18 19  1  0
 19 20  1  0
M  ISO  1   1   2
V    1 *
M  END
>  <symbol>  (440) 
Ole

>  <m_Rgroups>  (440) 
None,[OH],None,None,None,None

>  <m_abbr>  (440) 
Ole

>  <m_name>  (440) 
Oleoyl cap (C18:1 monoacid)

>  <m_type>  (440) 
cap

>  <m_subtype>  (440) 
cap

>  <m_chem_types>  (440) 
2:backbone_c

$$$$

     RDKit          2D

 18 17  0  0  0  0  0  0  0  0999 V2000
    9.7206    0.7564    0.0000 R   0  0  0  0  0  0  0  0  0  0  0  0
    8.4520   -0.0439    0.0000 C   0  0  0  0  0  0  0  0  0  0  0  0
    8.5107   -1.5427    0.0000 O   0  0  0  0  0  0  0  0  0  0  0  0
    7.1245    0.6546    0.0000 C   0  0  0  0  0  0  0  0  0  0  0  0
    5.8559   -0.1457    0.0000 C   0  0  0  0  0  0  0  0  0  0  0  0
    4.5284    0.5529    0.0000 C   0  0  0  0  0  0  0  0  0  0  0  0
    3.2598   -0.2475    0.0000 C   0  0  0  0  0  0  0  0  0  0  0  0
    1.9324    0.4511    0.0000 C   0  0  0  0  0  0  0  0  0  0  0  0
    0.6637   -0.3493    0.0000 C   0  0  0  0  0  0  0  0  0  0  0  0
   -0.6637    0.3493    0.0000 C   0  0  0  0  0  0  0  0  0  0  0  0
   -1.9324   -0.4511    0.0000 C   0  0  0  0  0  0  0  0  0  0  0  0
   -3.2598    0.2475    0.0000 C   0  0  0  0  0  0  0  0  0  0  0  0
   -4.5284   -0.5529    0.0000 C   0  0  0  0  0  0  0  0  0  0  0  0
   -5.8559    0.1457    0.0000 C   0  0  0  0  0  0  0  0  0  0  0  0
   -7.1245   -0.6546    0.0000 C   0  0  0  0  0  0  0  0  0  0  0  0
   -8.4520    0.0439    0.0000 C   0  0  0  0  0  0  0  0  0  0  0  0
   -9.7206   -0.7564    0.0000 R   0  0  0  0  0  0  0  0  0  0  0  0
   -8.5107    1.5427    0.0000 O   0  0  0  0  0  0  0  0  0  0  0  0
  1  2  1  0
  2  3  2  0
  2  4  1  0
  4  5  1  0
  5  6  1  0
  6  7  1  0
  7  8  1  0
  8  9  1  0
  9 10  1  0
 10 11  1  0
 11 12  1  0
 12 13  1  0
 13 14  1  0
 14 15  1  0
 15 16  1  0
 16 17  1  0
 16 18  2  0
M  ISO  2   1   2  17   4
V    1 *
V   17 *
M  END
>  <symbol>  (441) 
C14FA

>  <m_Rgroups>  (441) 
None, [OH], None, [OH]

>  <m_abbr>  (441) 
C14FA

>  <m_name>  (441) 
Tetradecanoic diacid cap (C14)

>  <m_type>  (441) 
cap

>  <m_subtype>  (441) 
cap

>  <m_chem_types>  (441) 
2:backbone_c

$$$$

     RDKit          2D

 20 19  0  0  0  0  0  0  0  0999 V2000
   11.0240    0.7300    0.0000 R   0  0  0  0  0  0  0  0  0  0  0  0
    9.7498   -0.0614    0.0000 C   0  0  0  0  0  0  0  0  0  0  0  0
    9.7981   -1.5606    0.0000 O   0  0  0  0  0  0  0  0  0  0  0  0
    8.4273    0.6464    0.0000 C   0  0  0  0  0  0  0  0  0  0  0  0
    7.1531   -0.1450    0.0000 C   0  0  0  0  0  0  0  0  0  0  0  0
    5.8306    0.5629    0.0000 C   0  0  0  0  0  0  0  0  0  0  0  0
    4.5563   -0.2285    0.0000 C   0  0  0  0  0  0  0  0  0  0  0  0
    3.2339    0.4793    0.0000 C   0  0  0  0  0  0  0  0  0  0  0  0
    1.9596   -0.3121    0.0000 C   0  0  0  0  0  0  0  0  0  0  0  0
    0.6371    0.3957    0.0000 C   0  0  0  0  0  0  0  0  0  0  0  0
   -0.6371   -0.3957    0.0000 C   0  0  0  0  0  0  0  0  0  0  0  0
   -1.9596    0.3121    0.0000 C   0  0  0  0  0  0  0  0  0  0  0  0
   -3.2339   -0.4793    0.0000 C   0  0  0  0  0  0  0  0  0  0  0  0
   -4.5563    0.2285    0.0000 C   0  0  0  0  0  0  0  0  0  0  0  0
   -5.8306   -0.5629    0.0000 C   0  0  0  0  0  0  0  0  0  0  0  0
   -7.1531    0.1450    0.0000 C   0  0  0  0  0  0  0  0  0  0  0  0
   -8.4273   -0.6464    0.0000 C   0  0  0  0  0  0  0  0  0  0  0  0
   -9.7498    0.0614    0.0000 C   0  0  0  0  0  0  0  0  0  0  0  0
  -11.0240   -0.7300    0.0000 R   0  0  0  0  0  0  0  0  0  0  0  0
   -9.7981    1.5606    0.0000 O   0  0  0  0  0  0  0  0  0  0  0  0
  1  2  1  0
  2  3  2  0
  2  4  1  0
  4  5  1  0
  5  6  1  0
  6  7  1  0
  7  8  1  0
  8  9  1  0
  9 10  1  0
 10 11  1  0
 11 12  1  0
 12 13  1  0
 13 14  1  0
 14 15  1  0
 15 16  1  0
 16 17  1  0
 17 18  1  0
 18 19  1  0
 18 20  2  0
M  ISO  2   1   2  19   4
V    1 *
V   19 *
M  END
>  <symbol>  (442) 
C16FA

>  <m_Rgroups>  (442) 
None, [OH], None, [OH]

>  <m_abbr>  (442) 
C16FA

>  <m_name>  (442) 
Hexadecanoic diacid cap (C16)

>  <m_type>  (442) 
cap

>  <m_subtype>  (442) 
cap

>  <m_chem_types>  (442) 
2:backbone_c

$$$$

     RDKit          2D

 26 25  0  0  0  0  0  0  0  0999 V2000
   14.9287    0.6687    0.0000 R   0  0  0  0  0  0  0  0  0  0  0  0
   13.6446   -0.1067    0.0000 C   0  0  0  0  0  0  0  0  0  0  0  0
   13.6741   -1.6064    0.0000 O   0  0  0  0  0  0  0  0  0  0  0  0
   12.3311    0.6176    0.0000 C   0  0  0  0  0  0  0  0  0  0  0  0
   11.0471   -0.1578    0.0000 C   0  0  0  0  0  0  0  0  0  0  0  0
    9.7335    0.5665    0.0000 C   0  0  0  0  0  0  0  0  0  0  0  0
    8.4495   -0.2089    0.0000 C   0  0  0  0  0  0  0  0  0  0  0  0
    7.1360    0.5154    0.0000 C   0  0  0  0  0  0  0  0  0  0  0  0
    5.8519   -0.2600    0.0000 C   0  0  0  0  0  0  0  0  0  0  0  0
    4.5384    0.4643    0.0000 C   0  0  0  0  0  0  0  0  0  0  0  0
    3.2543   -0.3111    0.0000 C   0  0  0  0  0  0  0  0  0  0  0  0
    1.9408    0.4132    0.0000 C   0  0  0  0  0  0  0  0  0  0  0  0
    0.6568   -0.3622    0.0000 C   0  0  0  0  0  0  0  0  0  0  0  0
   -0.6568    0.3622    0.0000 C   0  0  0  0  0  0  0  0  0  0  0  0
   -1.9408   -0.4132    0.0000 C   0  0  0  0  0  0  0  0  0  0  0  0
   -3.2543    0.3111    0.0000 C   0  0  0  0  0  0  0  0  0  0  0  0
   -4.5384   -0.4643    0.0000 C   0  0  0  0  0  0  0  0  0  0  0  0
   -5.8519    0.2600    0.0000 C   0  0  0  0  0  0  0  0  0  0  0  0
   -7.1360   -0.5154    0.0000 C   0  0  0  0  0  0  0  0  0  0  0  0
   -8.4495    0.2089    0.0000 C   0  0  0  0  0  0  0  0  0  0  0  0
   -9.7335   -0.5665    0.0000 C   0  0  0  0  0  0  0  0  0  0  0  0
  -11.0471    0.1578    0.0000 C   0  0  0  0  0  0  0  0  0  0  0  0
  -12.3311   -0.6176    0.0000 C   0  0  0  0  0  0  0  0  0  0  0  0
  -13.6446    0.1067    0.0000 C   0  0  0  0  0  0  0  0  0  0  0  0
  -14.9287   -0.6687    0.0000 R   0  0  0  0  0  0  0  0  0  0  0  0
  -13.6741    1.6064    0.0000 O   0  0  0  0  0  0  0  0  0  0  0  0
  1  2  1  0
  2  3  2  0
  2  4  1  0
  4  5  1  0
  5  6  1  0
  6  7  1  0
  7  8  1  0
  8  9  1  0
  9 10  1  0
 10 11  1  0
 11 12  1  0
 12 13  1  0
 13 14  1  0
 14 15  1  0
 15 16  1  0
 16 17  1  0
 17 18  1  0
 18 19  1  0
 19 20  1  0
 20 21  1  0
 21 22  1  0
 22 23  1  0
 23 24  1  0
 24 25  1  0
 24 26  2  0
M  ISO  2   1   2  25   4
V    1 *
V   25 *
M  END
>  <symbol>  (443) 
C22FA

>  <m_Rgroups>  (443) 
None, [OH], None, [OH]

>  <m_abbr>  (443) 
C22FA

>  <m_name>  (443) 
Docosanoic diacid cap (C22)

>  <m_type>  (443) 
cap

>  <m_subtype>  (443) 
cap

>  <m_chem_types>  (443) 
2:backbone_c

$$$$

     RDKit          2D

 28 29  0  0  0  0  0  0  0  0999 V2000
    1.5968   -5.3692    0.0000 R   0  0  0  0  0  0  0  0  0  0  0  0
    1.5932   -4.3692    0.0000 N   0  0  0  0  0  0  0  0  0  0  0  0
    0.7254   -3.8724    0.0000 R   0  0  0  0  0  0  0  0  0  0  0  0
    2.4574   -3.8661    0.0000 C   0  0  0  0  0  0  0  0  0  0  0  0
    2.4538   -2.8661    0.0000 C   0  0  0  0  0  0  0  0  0  0  0  0
    1.5860   -2.3694    0.0000 C   0  0  0  0  0  0  0  0  0  0  0  0
    1.5824   -1.3693    0.0000 C   0  0  0  0  0  0  0  0  0  0  0  0
    0.7144   -0.8724    0.0000 C   0  0  0  0  0  0  0  0  0  0  0  0
    0.7108    0.1275    0.0000 N   0  0  0  0  0  0  0  0  0  0  0  0
   -0.1570    0.6245    0.0000 S   0  0  0  0  0  0  0  0  0  0  0  0
   -0.6538   -0.2433    0.0000 O   0  0  0  0  0  0  0  0  0  0  0  0
    0.3400    1.4923    0.0000 O   0  0  0  0  0  0  0  0  0  0  0  0
   -1.0248    1.1212    0.0000 C   0  0  0  0  0  0  0  0  0  0  0  0
   -1.8890    0.6181    0.0000 C   0  0  0  0  0  0  0  0  0  0  0  0
   -2.7568    1.1151    0.0000 C   0  0  0  0  0  0  0  0  0  0  0  0
   -2.7604    2.1151    0.0000 C   0  0  0  0  0  0  0  0  0  0  0  0
   -1.8962    2.6183    0.0000 C   0  0  0  0  0  0  0  0  0  0  0  0
   -1.8998    3.6180    0.0000 C   0  0  0  0  0  0  0  0  0  0  0  0
   -2.7676    4.1151    0.0000 N   0  0  0  0  0  0  0  0  0  0  0  0
   -2.7712    5.1151    0.0000 C   0  0  0  0  0  0  0  0  0  0  0  0
   -3.6318    3.6118    0.0000 C   0  0  0  0  0  0  0  0  0  0  0  0
   -1.0356    4.1212    0.0000 C   0  0  0  0  0  0  0  0  0  0  0  0
   -0.1676    3.6245    0.0000 C   0  0  0  0  0  0  0  0  0  0  0  0
   -0.1642    2.6245    0.0000 C   0  0  0  0  0  0  0  0  0  0  0  0
   -1.0282    2.1212    0.0000 C   0  0  0  0  0  0  0  0  0  0  0  0
    3.3252   -4.3629    0.0000 C   0  0  0  0  0  0  0  0  0  0  0  0
    3.3288   -5.3629    0.0000 R   0  0  0  0  0  0  0  0  0  0  0  0
    4.1894   -3.8599    0.0000 O   0  0  0  0  0  0  0  0  0  0  0  0
  1  2  1  0
  2  3  1  0
  2  4  1  0
  4  5  1  1
  5  6  1  0
  6  7  1  0
  7  8  1  0
  8  9  1  0
  9 10  1  0
 10 11  2  0
 10 12  2  0
 10 13  1  0
 13 14  1  0
 14 15  2  0
 15 16  1  0
 16 17  2  0
 17 18  1  0
 18 19  1  0
 19 20  1  0
 19 21  1  0
 18 22  2  0
 22 23  1  0
 23 24  2  0
 24 25  1  0
  4 26  1  0
 26 27  1  0
 26 28  2  0
 25 13  2  0
 25 17  1  0
M  ISO  3   1   1   3   3  27   2
V    1 *
V    3 *
V   27 *
M  END
>  <symbol>  (444) 
DnLys

>  <m_Rgroups>  (444) 
[H],[OH],[H],None,None,None

>  <m_abbr>  (444) 
DnLys

>  <m_name>  (444) 
N-epsilon-Dansyl-L-lysine

>  <m_type>  (444) 
aa

>  <m_subtype>  (444) 
modified

>  <m_chem_types>  (444) 
1:backbone_n,2:backbone_c,3:backbone_n_mod

$$$$

     RDKit          2D

 24 25  0  0  0  0  0  0  0  0999 V2000
    1.3304   -4.6261    0.0000 R   0  0  0  0  0  0  0  0  0  0  0  0
    1.3312   -3.6261    0.0000 N   0  0  0  0  0  0  0  0  0  0  0  0
    0.4656   -3.1253    0.0000 R   0  0  0  0  0  0  0  0  0  0  0  0
    2.1976   -3.1267    0.0000 C   0  0  0  0  0  0  0  0  0  0  0  0
    2.1984   -2.1267    0.0000 C   0  0  0  0  0  0  0  0  0  0  0  0
    1.3328   -1.6261    0.0000 C   0  0  0  0  0  0  0  0  0  0  0  0
    1.3336   -0.6261    0.0000 C   0  0  0  0  0  0  0  0  0  0  0  0
    0.4680   -0.1253    0.0000 C   0  0  0  0  0  0  0  0  0  0  0  0
    0.4688    0.8747    0.0000 N   0  0  0  0  0  0  0  0  0  0  0  0
   -0.3968    1.3753    0.0000 C   0  0  0  0  0  0  0  0  0  0  0  0
   -0.3960    2.3753    0.0000 C   0  0  0  0  0  0  0  0  0  0  0  0
   -1.2616    2.8759    0.0000 C   0  0  0  0  0  0  0  0  0  0  0  0
   -1.2608    3.8761    0.0000 N   0  0  0  0  0  0  0  0  0  0  0  0
   -0.3944    4.3753    0.0000 O   0  0  0  0  0  0  0  0  0  0  0  0
   -2.1264    4.3767    0.0000 O   0  0  0  0  0  0  0  0  0  0  0  0
   -2.1280    2.3767    0.0000 C   0  0  0  0  0  0  0  0  0  0  0  0
   -3.0790    2.6865    0.0000 N   0  0  0  0  0  0  0  0  0  0  0  0
   -3.6670    1.8779    0.0000 O   0  0  0  0  0  0  0  0  0  0  0  0
   -3.0802    1.0683    0.0000 N   0  0  0  0  0  0  0  0  0  0  0  0
   -2.1288    1.3767    0.0000 C   0  0  0  0  0  0  0  0  0  0  0  0
   -1.2632    0.8761    0.0000 C   0  0  0  0  0  0  0  0  0  0  0  0
    3.0632   -3.6275    0.0000 C   0  0  0  0  0  0  0  0  0  0  0  0
    3.0624   -4.6275    0.0000 R   0  0  0  0  0  0  0  0  0  0  0  0
    3.9296   -3.1281    0.0000 O   0  0  0  0  0  0  0  0  0  0  0  0
  1  2  1  0
  2  3  1  0
  2  4  1  0
  4  5  1  1
  5  6  1  0
  6  7  1  0
  7  8  1  0
  8  9  1  0
  9 10  1  0
 10 11  1  0
 11 12  2  0
 12 13  1  0
 13 14  2  0
 13 15  1  0
 12 16  1  0
 16 17  2  0
 17 18  1  0
 18 19  1  0
 19 20  2  0
 20 21  1  0
  4 22  1  0
 22 23  1  0
 22 24  2  0
 21 10  2  0
 20 16  1  0
M  CHG  2  13   1  15  -1
M  ISO  3   1   1   3   3  23   2
V    1 *
V    3 *
V   23 *
M  END
>  <symbol>  (445) 
NBDLys

>  <m_Rgroups>  (445) 
[H],[OH],[H],None,None,None

>  <m_abbr>  (445) 
NBDLys

>  <m_name>  (445) 
N-epsilon-NBD-L-lysine

>  <m_type>  (445) 
aa

>  <m_subtype>  (445) 
modified

>  <m_chem_types>  (445) 
1:backbone_n,2:backbone_c,3:backbone_n_mod

$$$$

     RDKit          2D

 31 32  0  0  0  0  0  0  0  0999 V2000
   -7.6066   -3.4196    0.0000 R   0  0  0  0  0  0  0  0  0  0  0  0
   -6.7117   -2.2157    0.0000 N   0  0  0  0  0  0  0  0  0  0  0  0
   -5.2217   -2.3888    0.0000 R   0  0  0  0  0  0  0  0  0  0  0  0
   -7.3068   -0.8389    0.0000 C   0  0  0  0  0  0  0  0  0  0  0  0
   -6.4120    0.3650    0.0000 C   0  0  0  0  0  0  0  0  0  0  0  0
   -4.9220    0.1919    0.0000 C   0  0  0  0  0  0  0  0  0  0  0  0
   -4.0272    1.3958    0.0000 C   0  0  0  0  0  0  0  0  0  0  0  0
   -2.5372    1.2228    0.0000 C   0  0  0  0  0  0  0  0  0  0  0  0
   -1.6423    2.4266    0.0000 N   0  0  0  0  0  0  0  0  0  0  0  0
   -2.2375    3.8035    0.0000 R   0  0  0  0  0  0  0  0  0  0  0  0
   -0.1523    2.2536    0.0000 C   0  0  0  0  0  0  0  0  0  0  0  0
    0.7425    3.4574    0.0000 O   0  0  0  0  0  0  0  0  0  0  0  0
    0.4428    0.8767    0.0000 C   0  0  0  0  0  0  0  0  0  0  0  0
    1.9328    0.7036    0.0000 C   0  0  0  0  0  0  0  0  0  0  0  0
    2.5279   -0.6733    0.0000 C   0  0  0  0  0  0  0  0  0  0  0  0
    1.6331   -1.8771    0.0000 C   0  0  0  0  0  0  0  0  0  0  0  0
    4.0179   -0.8463    0.0000 C   0  0  0  0  0  0  0  0  0  0  0  0
    4.6130   -2.2232    0.0000 C   0  0  0  0  0  0  0  0  0  0  0  0
    6.1030   -2.3962    0.0000 C   0  0  0  0  0  0  0  0  0  0  0  0
    6.9979   -1.1924    0.0000 C   0  0  0  0  0  0  0  0  0  0  0  0
    8.4879   -1.3654    0.0000 N   0  0  0  0  0  0  0  0  0  0  0  0
    9.0830   -2.7423    0.0000 R   0  0  0  0  0  0  0  0  0  0  0  0
    9.3827   -0.1616    0.0000 R   0  0  0  0  0  0  0  0  0  0  0  0
    6.4027    0.1845    0.0000 C   0  0  0  0  0  0  0  0  0  0  0  0
    4.9128    0.3575    0.0000 C   0  0  0  0  0  0  0  0  0  0  0  0
    4.3176    1.7344    0.0000 O   0  0  0  0  0  0  0  0  0  0  0  0
    2.8276    1.9075    0.0000 C   0  0  0  0  0  0  0  0  0  0  0  0
    2.2325    3.2844    0.0000 O   0  0  0  0  0  0  0  0  0  0  0  0
   -8.7968   -0.6658    0.0000 C   0  0  0  0  0  0  0  0  0  0  0  0
   -9.6917   -1.8697    0.0000 R   0  0  0  0  0  0  0  0  0  0  0  0
   -9.3920    0.7111    0.0000 O   0  0  0  0  0  0  0  0  0  0  0  0
  1  2  1  0
  2  3  1  0
  2  4  1  0
  4  5  1  6
  5  6  1  0
  6  7  1  0
  7  8  1  0
  8  9  1  0
  9 10  1  0
  9 11  1  0
 11 12  2  0
 11 13  1  0
 13 14  1  0
 14 15  2  0
 15 16  1  0
 15 17  1  0
 17 18  1  0
 18 19  2  0
 19 20  1  0
 20 21  1  0
 21 22  1  0
 21 23  1  0
 20 24  2  0
 24 25  1  0
 25 26  1  0
 26 27  1  0
 27 28  2  0
  4 29  1  0
 29 30  1  0
 29 31  2  0
 27 14  1  0
 25 17  2  0
M  ISO  6   1   1   3   3  10   5  22   4  23   6  30   2
V    1 *
V    3 *
V   10 *
V   22 *
V   23 *
V   30 *
M  END
>  <symbol>  (446) 
AMCALys

>  <m_Rgroups>  (446) 
[H],[OH],[H],[H],[H],[H]

>  <m_abbr>  (446) 
AMCALys

>  <m_name>  (446) 
N-epsilon-AMCA-L-lysine

>  <m_type>  (446) 
aa

>  <m_subtype>  (446) 
modified

>  <m_chem_types>  (446) 
1:backbone_n,2:backbone_c,3:backbone_n_mod

$$$$

     RDKit          2D

 33 36  0  0  0  0  0  0  0  0999 V2000
   -5.1154    3.7372    0.0000 R   0  0  0  0  0  0  0  0  0  0  0  0
   -4.6601    2.3080    0.0000 N   0  0  0  0  0  0  0  0  0  0  0  0
   -3.1947    1.9877    0.0000 R   0  0  0  0  0  0  0  0  0  0  0  0
   -5.6702    1.1990    0.0000 C   0  0  0  0  0  0  0  0  0  0  0  0
   -5.2149   -0.2302    0.0000 C   0  0  0  0  0  0  0  0  0  0  0  0
   -3.7495   -0.5505    0.0000 C   0  0  0  0  0  0  0  0  0  0  0  0
   -3.2941   -1.9797    0.0000 C   0  0  0  0  0  0  0  0  0  0  0  0
   -1.8287   -2.3000    0.0000 C   0  0  0  0  0  0  0  0  0  0  0  0
   -1.3734   -3.7292    0.0000 N   0  0  0  0  0  0  0  0  0  0  0  0
   -2.3835   -4.8382    0.0000 R   0  0  0  0  0  0  0  0  0  0  0  0
    0.0920   -4.0495    0.0000 C   0  0  0  0  0  0  0  0  0  0  0  0
    0.5473   -5.4787    0.0000 O   0  0  0  0  0  0  0  0  0  0  0  0
    1.1021   -2.9406    0.0000 C   0  0  0  0  0  0  0  0  0  0  0  0
    0.6467   -1.5114    0.0000 C   0  0  0  0  0  0  0  0  0  0  0  0
    1.6568   -0.4024    0.0000 C   0  0  0  0  0  0  0  0  0  0  0  0
    1.2015    1.0268    0.0000 C   0  0  0  0  0  0  0  0  0  0  0  0
    2.2116    2.1357    0.0000 C   0  0  0  0  0  0  0  0  0  0  0  0
    3.6770    1.8154    0.0000 C   0  0  0  0  0  0  0  0  0  0  0  0
    4.1323    0.3862    0.0000 C   0  0  0  0  0  0  0  0  0  0  0  0
    3.1222   -0.7227    0.0000 C   0  0  0  0  0  0  0  0  0  0  0  0
    3.5776   -2.1519    0.0000 O   0  0  0  0  0  0  0  0  0  0  0  0
    2.5675   -3.2609    0.0000 C   0  0  0  0  0  0  0  0  0  0  0  0
    3.0228   -4.6901    0.0000 O   0  0  0  0  0  0  0  0  0  0  0  0
    5.5977    0.0659    0.0000 C   0  0  0  0  0  0  0  0  0  0  0  0
    6.6078    1.1749    0.0000 C   0  0  0  0  0  0  0  0  0  0  0  0
    6.1525    2.6041    0.0000 C   0  0  0  0  0  0  0  0  0  0  0  0
    4.6871    2.9244    0.0000 N   0  0  0  0  0  0  0  0  0  0  0  0
    4.2318    4.3536    0.0000 C   0  0  0  0  0  0  0  0  0  0  0  0
    2.7664    4.6739    0.0000 C   0  0  0  0  0  0  0  0  0  0  0  0
    1.7563    3.5650    0.0000 C   0  0  0  0  0  0  0  0  0  0  0  0
   -7.1356    1.5193    0.0000 C   0  0  0  0  0  0  0  0  0  0  0  0
   -7.5909    2.9485    0.0000 R   0  0  0  0  0  0  0  0  0  0  0  0
   -8.1457    0.4104    0.0000 O   0  0  0  0  0  0  0  0  0  0  0  0
  1  2  1  0
  2  3  1  0
  2  4  1  0
  4  5  1  1
  5  6  1  0
  6  7  1  0
  7  8  1  0
  8  9  1  0
  9 10  1  0
  9 11  1  0
 11 12  2  0
 11 13  1  0
 13 14  2  0
 14 15  1  0
 15 16  1  0
 16 17  2  0
 17 18  1  0
 18 19  2  0
 19 20  1  0
 20 21  1  0
 21 22  1  0
 22 23  2  0
 19 24  1  0
 24 25  1  0
 25 26  1  0
 26 27  1  0
 27 28  1  0
 28 29  1  0
 29 30  1  0
  4 31  1  0
 31 32  1  0
 31 33  2  0
 22 13  1  0
 20 15  2  0
 30 17  1  0
 27 18  1  0
M  ISO  4   1   1   3   3  10   4  32   2
V    1 *
V    3 *
V   10 *
V   32 *
M  END
>  <symbol>  (447) 
C343Lys

>  <m_Rgroups>  (447) 
[H],[OH],[H],[H],None,None

>  <m_abbr>  (447) 
C343Lys

>  <m_name>  (447) 
N-epsilon-Coumarin343-L-lysine

>  <m_type>  (447) 
aa

>  <m_subtype>  (447) 
modified

>  <m_chem_types>  (447) 
1:backbone_n,2:backbone_c,3:backbone_n_mod

$$$$

     RDKit          2D

 42 46  0  0  0  0  0  0  0  0999 V2000
  -11.1438    2.3330    0.0000 R   0  0  0  0  0  0  0  0  0  0  0  0
   -9.9665    1.4034    0.0000 N   0  0  0  0  0  0  0  0  0  0  0  0
   -8.5729    1.9583    0.0000 R   0  0  0  0  0  0  0  0  0  0  0  0
  -10.1828   -0.0809    0.0000 C   0  0  0  0  0  0  0  0  0  0  0  0
   -9.0055   -1.0104    0.0000 C   0  0  0  0  0  0  0  0  0  0  0  0
   -7.6119   -0.4556    0.0000 C   0  0  0  0  0  0  0  0  0  0  0  0
   -6.4346   -1.3851    0.0000 C   0  0  0  0  0  0  0  0  0  0  0  0
   -5.0410   -0.8303    0.0000 C   0  0  0  0  0  0  0  0  0  0  0  0
   -3.8637   -1.7598    0.0000 N   0  0  0  0  0  0  0  0  0  0  0  0
   -2.4701   -1.2050    0.0000 C   0  0  0  0  0  0  0  0  0  0  0  0
   -2.2537    0.2793    0.0000 S   0  0  0  0  0  0  0  0  0  0  0  0
   -1.2928   -2.1345    0.0000 N   0  0  0  0  0  0  0  0  0  0  0  0
    0.1008   -1.5797    0.0000 C   0  0  0  0  0  0  0  0  0  0  0  0
    0.3172   -0.0954    0.0000 C   0  0  0  0  0  0  0  0  0  0  0  0
    1.7108    0.4594    0.0000 C   0  0  0  0  0  0  0  0  0  0  0  0
    2.8881   -0.4701    0.0000 C   0  0  0  0  0  0  0  0  0  0  0  0
    2.6717   -1.9544    0.0000 C   0  0  0  0  0  0  0  0  0  0  0  0
    1.2781   -2.5092    0.0000 C   0  0  0  0  0  0  0  0  0  0  0  0
    4.0166   -2.6189    0.0000 C   0  0  0  0  0  0  0  0  0  0  0  0
    4.2695   -4.0974    0.0000 O   0  0  0  0  0  0  0  0  0  0  0  0
    5.0640   -1.5452    0.0000 O   0  0  0  0  0  0  0  0  0  0  0  0
    4.3666   -0.2172    0.0000 C   0  0  0  0  0  0  0  0  0  0  0  0
    5.8635   -0.1202    0.0000 C   0  0  0  0  0  0  0  0  0  0  0  0
    6.6959   -1.3680    0.0000 C   0  0  0  0  0  0  0  0  0  0  0  0
    8.1928   -1.2710    0.0000 C   0  0  0  0  0  0  0  0  0  0  0  0
    8.8572    0.0738    0.0000 C   0  0  0  0  0  0  0  0  0  0  0  0
   10.3540    0.1708    0.0000 O   0  0  0  0  0  0  0  0  0  0  0  0
   11.1865   -1.0770    0.0000 R   0  0  0  0  0  0  0  0  0  0  0  0
    8.0248    1.3216    0.0000 C   0  0  0  0  0  0  0  0  0  0  0  0
    6.5279    1.2246    0.0000 C   0  0  0  0  0  0  0  0  0  0  0  0
    5.6955    2.4724    0.0000 O   0  0  0  0  0  0  0  0  0  0  0  0
    4.1986    2.3755    0.0000 C   0  0  0  0  0  0  0  0  0  0  0  0
    3.0561    2.9957    0.0000 C   0  0  0  0  0  0  0  0  0  0  0  0
    2.2578    2.9440    0.0000 C   0  0  0  0  0  0  0  0  0  0  0  0
    1.9034    2.2267    0.0000 C   0  0  0  0  0  0  0  0  0  0  0  0
   -0.2920    2.0845    0.0000 O   0  0  0  0  0  0  0  0  0  0  0  0
   -1.1244    3.3323    0.0000 R   0  0  0  0  0  0  0  0  0  0  0  0
    2.3474    1.5612    0.0000 C   0  0  0  0  0  0  0  0  0  0  0  0
    3.5342    1.0306    0.0000 C   0  0  0  0  0  0  0  0  0  0  0  0
  -11.5765   -0.6357    0.0000 C   0  0  0  0  0  0  0  0  0  0  0  0
  -12.7537    0.2938    0.0000 R   0  0  0  0  0  0  0  0  0  0  0  0
  -11.7928   -2.1200    0.0000 O   0  0  0  0  0  0  0  0  0  0  0  0
  1  2  1  0
  2  3  1  0
  2  4  1  0
  4  5  1  1
  5  6  1  0
  6  7  1  0
  7  8  1  0
  8  9  1  0
  9 10  1  0
 10 11  2  0
 10 12  1  0
 12 13  1  0
 13 14  1  0
 14 15  2  0
 15 16  1  0
 16 17  2  0
 17 18  1  0
 17 19  1  0
 19 20  2  0
 19 21  1  0
 21 22  1  0
 22 23  1  0
 23 24  1  0
 24 25  2  0
 25 26  1  0
 26 27  1  0
 27 28  1  0
 26 29  2  0
 29 30  1  0
 30 31  1  0
 31 32  1  0
 32 33  1  0
 33 34  2  0
 34 35  1  0
 35 36  1  0
 36 37  1  0
 35 38  2  0
 38 39  1  0
  4 40  1  0
 40 41  1  0
 40 42  2  0
 18 13  2  0
 39 22  1  0
 22 16  1  0
 30 23  2  0
 39 32  2  0
M  ISO  5   1   1   3   3  28   4  37   5  41   2
V    1 *
V    3 *
V   28 *
V   37 *
V   41 *
M  END
>  <symbol>  (448) 
FITCLys

>  <m_Rgroups>  (448) 
[H],[OH],[H],[H],[H],None

>  <m_abbr>  (448) 
FITCLys

>  <m_name>  (448) 
N-epsilon-FITC-L-lysine (thiourea)

>  <m_type>  (448) 
aa

>  <m_subtype>  (448) 
modified

>  <m_chem_types>  (448) 
1:backbone_n,2:backbone_c,3:backbone_n_mod

$$$$

     RDKit          2D

 35 37  0  0  0  0  0  0  0  0999 V2000
   -8.7592    3.7639    0.0000 R   0  0  0  0  0  0  0  0  0  0  0  0
   -8.0758    2.4286    0.0000 N   0  0  0  0  0  0  0  0  0  0  0  0
   -6.5777    2.3529    0.0000 R   0  0  0  0  0  0  0  0  0  0  0  0
   -8.8904    1.1691    0.0000 C   0  0  0  0  0  0  0  0  0  0  0  0
   -8.2069   -0.1661    0.0000 C   0  0  0  0  0  0  0  0  0  0  0  0
   -6.7088   -0.2418    0.0000 C   0  0  0  0  0  0  0  0  0  0  0  0
   -6.0253   -1.5771    0.0000 C   0  0  0  0  0  0  0  0  0  0  0  0
   -4.5272   -1.6528    0.0000 C   0  0  0  0  0  0  0  0  0  0  0  0
   -3.8437   -2.9880    0.0000 N   0  0  0  0  0  0  0  0  0  0  0  0
   -4.6583   -4.2475    0.0000 R   0  0  0  0  0  0  0  0  0  0  0  0
   -2.3457   -3.0637    0.0000 C   0  0  0  0  0  0  0  0  0  0  0  0
   -1.6622   -4.3989    0.0000 O   0  0  0  0  0  0  0  0  0  0  0  0
   -1.5310   -1.8042    0.0000 C   0  0  0  0  0  0  0  0  0  0  0  0
   -0.0330   -1.8799    0.0000 C   0  0  0  0  0  0  0  0  0  0  0  0
    0.7817   -0.6204    0.0000 C   0  0  0  0  0  0  0  0  0  0  0  0
    2.2797   -0.6961    0.0000 C   0  0  0  0  0  0  0  0  0  0  0  0
    3.0943    0.5635    0.0000 C   0  0  0  0  0  0  0  0  0  0  0  0
    4.5921    0.6448    0.0000 N   0  0  0  0  0  0  0  0  0  0  0  0
    4.9777    2.0944    0.0000 C   0  0  0  0  0  0  0  0  0  0  0  0
    6.4258    2.4853    0.0000 C   0  0  0  0  0  0  0  0  0  0  0  0
    7.4885    1.4266    0.0000 C   0  0  0  0  0  0  0  0  0  0  0  0
    8.9863    1.5079    0.0000 C   0  0  0  0  0  0  0  0  0  0  0  0
    9.8009    2.7675    0.0000 C   0  0  0  0  0  0  0  0  0  0  0  0
    9.5264    0.1086    0.0000 C   0  0  0  0  0  0  0  0  0  0  0  0
    8.3625   -0.8376    0.0000 C   0  0  0  0  0  0  0  0  0  0  0  0
    8.4438   -2.3354    0.0000 C   0  0  0  0  0  0  0  0  0  0  0  0
    7.1029   -0.0230    0.0000 N   0  0  0  0  0  0  0  0  0  0  0  0
    5.6548   -0.4139    0.0000 B   0  0  0  0  0  0  0  0  0  0  0  0
    4.4277   -1.2766    0.0000 F   0  0  0  0  0  0  0  0  0  0  0  0
    6.2912   -1.7722    0.0000 F   0  0  0  0  0  0  0  0  0  0  0  0
    3.7181    2.9090    0.0000 C   0  0  0  0  0  0  0  0  0  0  0  0
    2.5542    1.9628    0.0000 C   0  0  0  0  0  0  0  0  0  0  0  0
  -10.3884    1.2448    0.0000 C   0  0  0  0  0  0  0  0  0  0  0  0
  -11.0719    2.5800    0.0000 R   0  0  0  0  0  0  0  0  0  0  0  0
  -11.2031   -0.0147    0.0000 O   0  0  0  0  0  0  0  0  0  0  0  0
  1  2  1  0
  2  3  1  0
  2  4  1  0
  4  5  1  1
  5  6  1  0
  6  7  1  0
  7  8  1  0
  8  9  1  0
  9 10  1  0
  9 11  1  0
 11 12  2  0
 11 13  1  0
 13 14  1  0
 14 15  1  0
 15 16  1  0
 16 17  1  0
 17 18  2  0
 18 19  1  0
 19 20  2  0
 20 21  1  0
 21 22  2  0
 22 23  1  0
 22 24  1  0
 24 25  2  0
 25 26  1  0
 25 27  1  0
 27 28  1  0
 28 29  1  0
 28 30  1  0
 19 31  1  0
 31 32  2  0
  4 33  1  0
 33 34  1  0
 33 35  2  0
 32 17  1  0
 28 18  1  0
 27 21  1  0
M  CHG  2  18   1  28  -1
M  ISO  4   1   1   3   3  10   4  34   2
V    1 *
V    3 *
V   10 *
V   34 *
M  END
>  <symbol>  (449) 
BDPFLLys

>  <m_Rgroups>  (449) 
[H],[OH],[H],[H],None,None

>  <m_abbr>  (449) 
BDPFLLys

>  <m_name>  (449) 
N-epsilon-BODIPY-FL-C5-L-lysine

>  <m_type>  (449) 
aa

>  <m_subtype>  (449) 
modified

>  <m_chem_types>  (449) 
1:backbone_n,2:backbone_c,3:backbone_n_mod

$$$$

     RDKit          2D

 41 44  0  0  0  0  0  0  0  0999 V2000
   -6.7727    3.0987    0.0000 R   0  0  0  0  0  0  0  0  0  0  0  0
   -6.2733    1.6843    0.0000 N   0  0  0  0  0  0  0  0  0  0  0  0
   -4.7986    1.4096    0.0000 R   0  0  0  0  0  0  0  0  0  0  0  0
   -7.2485    0.5446    0.0000 C   0  0  0  0  0  0  0  0  0  0  0  0
   -6.7491   -0.8699    0.0000 C   0  0  0  0  0  0  0  0  0  0  0  0
   -5.2744   -1.1446    0.0000 C   0  0  0  0  0  0  0  0  0  0  0  0
   -4.7750   -2.5590    0.0000 C   0  0  0  0  0  0  0  0  0  0  0  0
   -3.3004   -2.8337    0.0000 C   0  0  0  0  0  0  0  0  0  0  0  0
   -2.8010   -4.2481    0.0000 N   0  0  0  0  0  0  0  0  0  0  0  0
   -3.7762   -5.3878    0.0000 R   0  0  0  0  0  0  0  0  0  0  0  0
   -1.3263   -4.5228    0.0000 C   0  0  0  0  0  0  0  0  0  0  0  0
   -0.8269   -5.9372    0.0000 O   0  0  0  0  0  0  0  0  0  0  0  0
   -0.3511   -3.3831    0.0000 C   0  0  0  0  0  0  0  0  0  0  0  0
   -0.8505   -1.9687    0.0000 C   0  0  0  0  0  0  0  0  0  0  0  0
    0.1247   -0.8290    0.0000 C   0  0  0  0  0  0  0  0  0  0  0  0
    1.5993   -1.1037    0.0000 C   0  0  0  0  0  0  0  0  0  0  0  0
    2.5745    0.0361    0.0000 C   0  0  0  0  0  0  0  0  0  0  0  0
    4.0492   -0.2386    0.0000 C   0  0  0  0  0  0  0  0  0  0  0  0
    4.5486   -1.6531    0.0000 C   0  0  0  0  0  0  0  0  0  0  0  0
    6.0232   -1.9278    0.0000 C   0  0  0  0  0  0  0  0  0  0  0  0
    6.9984   -0.7880    0.0000 C   0  0  0  0  0  0  0  0  0  0  0  0
    8.4731   -1.0627    0.0000 N   0  0  0  0  0  0  0  0  0  0  0  0
    8.9725   -2.4772    0.0000 C   0  0  0  0  0  0  0  0  0  0  0  0
    9.4483    0.0770    0.0000 C   0  0  0  0  0  0  0  0  0  0  0  0
    6.4990    0.6264    0.0000 C   0  0  0  0  0  0  0  0  0  0  0  0
    5.0244    0.9011    0.0000 C   0  0  0  0  0  0  0  0  0  0  0  0
    4.5250    2.3155    0.0000 O   0  0  0  0  0  0  0  0  0  0  0  0
    3.0503    2.5902    0.0000 C   0  0  0  0  0  0  0  0  0  0  0  0
    2.5509    4.0046    0.0000 C   0  0  0  0  0  0  0  0  0  0  0  0
    1.0763    4.2793    0.0000 C   0  0  0  0  0  0  0  0  0  0  0  0
    0.5769    5.6937    0.0000 N   0  0  0  0  0  0  0  0  0  0  0  0
    1.5521    6.8335    0.0000 C   0  0  0  0  0  0  0  0  0  0  0  0
   -0.8978    5.9684    0.0000 C   0  0  0  0  0  0  0  0  0  0  0  0
    0.1011    3.1396    0.0000 C   0  0  0  0  0  0  0  0  0  0  0  0
    0.6005    1.7252    0.0000 C   0  0  0  0  0  0  0  0  0  0  0  0
    2.0751    1.4505    0.0000 C   0  0  0  0  0  0  0  0  0  0  0  0
    2.0987   -2.5181    0.0000 C   0  0  0  0  0  0  0  0  0  0  0  0
    1.1235   -3.6578    0.0000 C   0  0  0  0  0  0  0  0  0  0  0  0
   -8.7231    0.8193    0.0000 C   0  0  0  0  0  0  0  0  0  0  0  0
   -9.2225    2.2337    0.0000 R   0  0  0  0  0  0  0  0  0  0  0  0
   -9.6983   -0.3205    0.0000 O   0  0  0  0  0  0  0  0  0  0  0  0
  1  2  1  0
  2  3  1  0
  2  4  1  0
  4  5  1  1
  5  6  1  0
  6  7  1  0
  7  8  1  0
  8  9  1  0
  9 10  1  0
  9 11  1  0
 11 12  2  0
 11 13  1  0
 13 14  1  0
 14 15  2  0
 15 16  1  0
 16 17  1  0
 17 18  2  0
 18 19  1  0
 19 20  2  0
 20 21  1  0
 21 22  2  0
 22 23  1  0
 22 24  1  0
 21 25  1  0
 25 26  2  0
 26 27  1  0
 27 28  1  0
 28 29  1  0
 29 30  2  0
 30 31  1  0
 31 32  1  0
 31 33  1  0
 30 34  1  0
 34 35  2  0
 35 36  1  0
 16 37  2  0
 37 38  1  0
  4 39  1  0
 39 40  1  0
 39 41  2  0
 38 13  2  0
 36 17  1  0
 26 18  1  0
 36 28  2  0
M  CHG  1  22   1
M  ISO  4   1   1   3   3  10   4  40   2
V    1 *
V    3 *
V   10 *
V   40 *
M  END
>  <symbol>  (450) 
TAMRALys

>  <m_Rgroups>  (450) 
[H],[OH],[H],[H],None,None

>  <m_abbr>  (450) 
TAMRALys

>  <m_name>  (450) 
N-epsilon-5-TAMRA-L-lysine

>  <m_type>  (450) 
aa

>  <m_subtype>  (450) 
modified

>  <m_chem_types>  (450) 
1:backbone_n,2:backbone_c,3:backbone_n_mod

$$$$

     RDKit          2D

 43 46  0  0  0  0  0  0  0  0999 V2000
    8.0044    3.3686    0.0000 R   0  0  0  0  0  0  0  0  0  0  0  0
    7.5944    1.9258    0.0000 N   0  0  0  0  0  0  0  0  0  0  0  0
    6.1398    1.5595    0.0000 R   0  0  0  0  0  0  0  0  0  0  0  0
    8.6389    0.8492    0.0000 C   0  0  0  0  0  0  0  0  0  0  0  0
    8.2288   -0.5936    0.0000 C   0  0  0  0  0  0  0  0  0  0  0  0
    6.7742   -0.9599    0.0000 C   0  0  0  0  0  0  0  0  0  0  0  0
    6.3641   -2.4028    0.0000 C   0  0  0  0  0  0  0  0  0  0  0  0
    4.9095   -2.7691    0.0000 C   0  0  0  0  0  0  0  0  0  0  0  0
    4.4995   -4.2119    0.0000 N   0  0  0  0  0  0  0  0  0  0  0  0
    5.5440   -5.2885    0.0000 R   0  0  0  0  0  0  0  0  0  0  0  0
    3.0449   -4.5782    0.0000 C   0  0  0  0  0  0  0  0  0  0  0  0
    2.6348   -6.0211    0.0000 O   0  0  0  0  0  0  0  0  0  0  0  0
    2.0004   -3.5017    0.0000 C   0  0  0  0  0  0  0  0  0  0  0  0
    0.5458   -3.8679    0.0000 C   0  0  0  0  0  0  0  0  0  0  0  0
   -0.4987   -2.7914    0.0000 C   0  0  0  0  0  0  0  0  0  0  0  0
   -1.9533   -3.1577    0.0000 C   0  0  0  0  0  0  0  0  0  0  0  0
   -2.9978   -2.0811    0.0000 C   0  0  0  0  0  0  0  0  0  0  0  0
   -4.4524   -2.4474    0.0000 N   0  0  0  0  0  0  0  0  0  0  0  0
   -5.7400   -1.6779    0.0000 C   0  0  0  0  0  0  0  0  0  0  0  0
   -6.1063   -0.2233    0.0000 C   0  0  0  0  0  0  0  0  0  0  0  0
   -5.0297    0.8212    0.0000 C   0  0  0  0  0  0  0  0  0  0  0  0
   -5.3960    2.2758    0.0000 C   0  0  0  0  0  0  0  0  0  0  0  0
   -4.3194    3.3204    0.0000 C   0  0  0  0  0  0  0  0  0  0  0  0
   -2.8416    3.0633    0.0000 N   0  0  0  0  0  0  0  0  0  0  0  0
   -2.1809    1.7167    0.0000 C   0  0  0  0  0  0  0  0  0  0  0  0
   -2.1405    4.3894    0.0000 C   0  0  0  0  0  0  0  0  0  0  0  0
   -0.6859    4.7557    0.0000 C   0  0  0  0  0  0  0  0  0  0  0  0
   -0.2759    6.1986    0.0000 C   0  0  0  0  0  0  0  0  0  0  0  0
   -1.3204    7.2751    0.0000 C   0  0  0  0  0  0  0  0  0  0  0  0
   -2.7750    6.9088    0.0000 C   0  0  0  0  0  0  0  0  0  0  0  0
   -3.1850    5.4660    0.0000 C   0  0  0  0  0  0  0  0  0  0  0  0
   -4.5317    4.8053    0.0000 C   0  0  0  0  0  0  0  0  0  0  0  0
   -5.0480    6.2136    0.0000 C   0  0  0  0  0  0  0  0  0  0  0  0
   -5.9863    4.4390    0.0000 C   0  0  0  0  0  0  0  0  0  0  0  0
   -6.5095   -2.9654    0.0000 C   0  0  0  0  0  0  0  0  0  0  0  0
   -7.8198   -3.6957    0.0000 C   0  0  0  0  0  0  0  0  0  0  0  0
   -7.8424   -5.1955    0.0000 C   0  0  0  0  0  0  0  0  0  0  0  0
   -6.5549   -5.9651    0.0000 C   0  0  0  0  0  0  0  0  0  0  0  0
   -5.2446   -5.2348    0.0000 C   0  0  0  0  0  0  0  0  0  0  0  0
   -5.2220   -3.7350    0.0000 C   0  0  0  0  0  0  0  0  0  0  0  0
   10.0935    1.2155    0.0000 C   0  0  0  0  0  0  0  0  0  0  0  0
   10.5035    2.6584    0.0000 R   0  0  0  0  0  0  0  0  0  0  0  0
   11.1380    0.1389    0.0000 O   0  0  0  0  0  0  0  0  0  0  0  0
  1  2  1  0
  2  3  1  0
  2  4  1  0
  4  5  1  6
  5  6  1  0
  6  7  1  0
  7  8  1  0
  8  9  1  0
  9 10  1  0
  9 11  1  0
 11 12  2  0
 11 13  1  0
 13 14  1  0
 14 15  1  0
 15 16  1  0
 16 17  1  0
 17 18  1  0
 18 19  1  0
 19 20  2  0
 20 21  1  0
 21 22  2  0
 22 23  1  0
 23 24  2  0
 24 25  1  0
 24 26  1  0
 26 27  2  0
 27 28  1  0
 28 29  2  0
 29 30  1  0
 30 31  2  0
 31 32  1  0
 32 33  1  0
 32 34  1  0
 19 35  1  0
 35 36  2  0
 36 37  1  0
 37 38  2  0
 38 39  1  0
 39 40  2  0
  4 41  1  0
 41 42  1  0
 41 43  2  0
 40 18  1  0
 32 23  1  0
 40 35  1  0
 31 26  1  0
M  CHG  1  24   1
M  ISO  4   1   1   3   3  10   4  42   2
V    1 *
V    3 *
V   10 *
V   42 *
M  END
>  <symbol>  (451) 
Cy3Lys

>  <m_Rgroups>  (451) 
[H],[OH],[H],[H],None,None

>  <m_abbr>  (451) 
Cy3Lys

>  <m_name>  (451) 
N-epsilon-Cy3-L-lysine (non-sulfonated)

>  <m_type>  (451) 
aa

>  <m_subtype>  (451) 
modified

>  <m_chem_types>  (451) 
1:backbone_n,2:backbone_c,3:backbone_n_mod

$$$$

     RDKit          2D

 18 18  0  0  0  0  0  0  0  0999 V2000
    0.5590   -2.6752    0.0000 R   0  0  0  0  0  0  0  0  0  0  0  0
    0.5610   -1.6752    0.0000 N   0  0  0  0  0  0  0  0  0  0  0  0
   -0.3040   -1.1734    0.0000 R   0  0  0  0  0  0  0  0  0  0  0  0
    1.4282   -1.1770    0.0000 C   0  0  0  0  0  0  0  0  0  0  0  0
    1.4302   -0.1770    0.0000 C   0  0  0  0  0  0  0  0  0  0  0  0
    0.5652    0.3248    0.0000 C   0  0  0  0  0  0  0  0  0  0  0  0
    0.5670    1.3246    0.0000 C   0  0  0  0  0  0  0  0  0  0  0  0
   -0.2978    1.8266    0.0000 C   0  0  0  0  0  0  0  0  0  0  0  0
   -1.1650    1.3282    0.0000 C   0  0  0  0  0  0  0  0  0  0  0  0
   -2.0298    1.8298    0.0000 C   0  0  0  0  0  0  0  0  0  0  0  0
   -2.5316    0.9648    0.0000 F   0  0  0  0  0  0  0  0  0  0  0  0
   -3.0298    1.8320    0.0000 F   0  0  0  0  0  0  0  0  0  0  0  0
   -2.0278    2.8298    0.0000 F   0  0  0  0  0  0  0  0  0  0  0  0
   -1.1668    0.3282    0.0000 C   0  0  0  0  0  0  0  0  0  0  0  0
   -0.3020   -0.1736    0.0000 C   0  0  0  0  0  0  0  0  0  0  0  0
    2.2932   -1.6786    0.0000 C   0  0  0  0  0  0  0  0  0  0  0  0
    2.2912   -2.6786    0.0000 R   0  0  0  0  0  0  0  0  0  0  0  0
    3.1602   -1.1804    0.0000 O   0  0  0  0  0  0  0  0  0  0  0  0
  1  2  1  0
  2  3  1  0
  2  4  1  0
  4  5  1  6
  5  6  1  0
  6  7  1  0
  7  8  2  0
  8  9  1  0
  9 10  1  0
 10 11  1  0
 10 12  1  0
 10 13  1  0
  9 14  2  0
 14 15  1  0
  4 16  1  0
 16 17  1  0
 16 18  2  0
 15  6  2  0
M  ISO  3   1   1   3   3  17   2
V    1 *
V    3 *
V   17 *
M  END
>  <symbol>  (452) 
D_Phe_4CF3

>  <m_Rgroups>  (452) 
[H],[OH],[H],None,None,None

>  <m_abbr>  (452) 
D_Phe_4CF3

>  <m_name>  (452) 
D-4-(Trifluoromethyl)phenylalanine

>  <m_type>  (452) 
aa

>  <m_subtype>  (452) 
modified

>  <m_chem_types>  (452) 
1:backbone_n,2:backbone_c,3:backbone_n_mod

$$$$

     RDKit          2D

 16 16  0  0  0  0  0  0  0  0999 V2000
    0.2618   -2.4696    0.0000 R   0  0  0  0  0  0  0  0  0  0  0  0
    0.2654   -1.4696    0.0000 N   0  0  0  0  0  0  0  0  0  0  0  0
   -0.5988   -0.9666    0.0000 R   0  0  0  0  0  0  0  0  0  0  0  0
    1.1332   -0.9728    0.0000 C   0  0  0  0  0  0  0  0  0  0  0  0
    1.1368    0.0272    0.0000 C   0  0  0  0  0  0  0  0  0  0  0  0
    0.2726    0.5302    0.0000 C   0  0  0  0  0  0  0  0  0  0  0  0
   -0.5952    0.0334    0.0000 C   0  0  0  0  0  0  0  0  0  0  0  0
   -1.4594    0.5366    0.0000 C   0  0  0  0  0  0  0  0  0  0  0  0
   -1.4560    1.5366    0.0000 C   0  0  0  0  0  0  0  0  0  0  0  0
   -2.3200    2.0396    0.0000 C   0  0  0  0  0  0  0  0  0  0  0  0
   -3.1842    2.5426    0.0000 N   0  0  0  0  0  0  0  0  0  0  0  0
   -0.5880    2.0334    0.0000 C   0  0  0  0  0  0  0  0  0  0  0  0
    0.2760    1.5302    0.0000 C   0  0  0  0  0  0  0  0  0  0  0  0
    1.9974   -1.4758    0.0000 C   0  0  0  0  0  0  0  0  0  0  0  0
    1.9938   -2.4758    0.0000 R   0  0  0  0  0  0  0  0  0  0  0  0
    2.8652   -0.9790    0.0000 O   0  0  0  0  0  0  0  0  0  0  0  0
  1  2  1  0
  2  3  1  0
  2  4  1  0
  4  5  1  6
  5  6  1  0
  6  7  1  0
  7  8  2  0
  8  9  1  0
  9 10  1  0
 10 11  3  0
  9 12  2  0
 12 13  1  0
  4 14  1  0
 14 15  1  0
 14 16  2  0
 13  6  2  0
M  ISO  3   1   1   3   3  15   2
V    1 *
V    3 *
V   15 *
M  END
>  <symbol>  (453) 
D_Phe_4CN

>  <m_Rgroups>  (453) 
[H],[OH],[H],None,None,None

>  <m_abbr>  (453) 
D_Phe_4CN

>  <m_name>  (453) 
D-4-Cyanophenylalanine

>  <m_type>  (453) 
aa

>  <m_subtype>  (453) 
modified

>  <m_chem_types>  (453) 
1:backbone_n,2:backbone_c,3:backbone_n_mod

$$$$

     RDKit          2D

 16 16  0  0  0  0  0  0  0  0999 V2000
    0.2075   -2.5007    0.0000 R   0  0  0  0  0  0  0  0  0  0  0  0
    0.2111   -1.5007    0.0000 N   0  0  0  0  0  0  0  0  0  0  0  0
   -0.6531   -0.9977    0.0000 R   0  0  0  0  0  0  0  0  0  0  0  0
    1.0789   -1.0039    0.0000 C   0  0  0  0  0  0  0  0  0  0  0  0
    1.0825   -0.0039    0.0000 C   0  0  0  0  0  0  0  0  0  0  0  0
    0.2183    0.4991    0.0000 C   0  0  0  0  0  0  0  0  0  0  0  0
   -0.6495    0.0023    0.0000 C   0  0  0  0  0  0  0  0  0  0  0  0
   -1.5137    0.5055    0.0000 C   0  0  0  0  0  0  0  0  0  0  0  0
   -1.5101    1.5053    0.0000 C   0  0  0  0  0  0  0  0  0  0  0  0
   -2.3743    2.0085    0.0000 O   0  0  0  0  0  0  0  0  0  0  0  0
   -2.3707    3.0085    0.0000 C   0  0  0  0  0  0  0  0  0  0  0  0
   -0.6423    2.0023    0.0000 C   0  0  0  0  0  0  0  0  0  0  0  0
    0.2219    1.4991    0.0000 C   0  0  0  0  0  0  0  0  0  0  0  0
    1.9431   -1.5069    0.0000 C   0  0  0  0  0  0  0  0  0  0  0  0
    1.9395   -2.5069    0.0000 R   0  0  0  0  0  0  0  0  0  0  0  0
    2.8109   -1.0101    0.0000 O   0  0  0  0  0  0  0  0  0  0  0  0
  1  2  1  0
  2  3  1  0
  2  4  1  0
  4  5  1  6
  5  6  1  0
  6  7  1  0
  7  8  2  0
  8  9  1  0
  9 10  1  0
 10 11  1  0
  9 12  2  0
 12 13  1  0
  4 14  1  0
 14 15  1  0
 14 16  2  0
 13  6  2  0
M  ISO  3   1   1   3   3  15   2
V    1 *
V    3 *
V   15 *
M  END
>  <symbol>  (454) 
D_Phe_4OMe

>  <m_Rgroups>  (454) 
[H],[OH],[H],None,None,None

>  <m_abbr>  (454) 
D_Phe_4OMe

>  <m_name>  (454) 
D-4-Methoxyphenylalanine

>  <m_type>  (454) 
aa

>  <m_subtype>  (454) 
modified

>  <m_chem_types>  (454) 
1:backbone_n,2:backbone_c,3:backbone_n_mod

$$$$

     RDKit          2D

 16 16  0  0  0  0  0  0  0  0999 V2000
    0.0562   -2.5937    0.0000 R   0  0  0  0  0  0  0  0  0  0  0  0
    0.0554   -1.5937    0.0000 N   0  0  0  0  0  0  0  0  0  0  0  0
   -0.8110   -1.0945    0.0000 R   0  0  0  0  0  0  0  0  0  0  0  0
    0.9210   -1.0931    0.0000 C   0  0  0  0  0  0  0  0  0  0  0  0
    0.9202   -0.0931    0.0000 C   0  0  0  0  0  0  0  0  0  0  0  0
    0.0540    0.4063    0.0000 C   0  0  0  0  0  0  0  0  0  0  0  0
   -0.8118   -0.0943    0.0000 C   0  0  0  0  0  0  0  0  0  0  0  0
   -1.6782    0.4049    0.0000 C   0  0  0  0  0  0  0  0  0  0  0  0
   -1.6790    1.4049    0.0000 C   0  0  0  0  0  0  0  0  0  0  0  0
   -0.8134    1.9055    0.0000 C   0  0  0  0  0  0  0  0  0  0  0  0
   -0.8142    2.9055    0.0000 O   0  0  0  0  0  0  0  0  0  0  0  0
   -1.6806    3.4049    0.0000 C   0  0  0  0  0  0  0  0  0  0  0  0
    0.0532    1.4063    0.0000 C   0  0  0  0  0  0  0  0  0  0  0  0
    1.7874   -1.5923    0.0000 C   0  0  0  0  0  0  0  0  0  0  0  0
    1.7882   -2.5923    0.0000 R   0  0  0  0  0  0  0  0  0  0  0  0
    2.6530   -1.0917    0.0000 O   0  0  0  0  0  0  0  0  0  0  0  0
  1  2  1  0
  2  3  1  0
  2  4  1  0
  4  5  1  6
  5  6  1  0
  6  7  1  0
  7  8  2  0
  8  9  1  0
  9 10  2  0
 10 11  1  0
 11 12  1  0
 10 13  1  0
  4 14  1  0
 14 15  1  0
 14 16  2  0
 13  6  2  0
M  ISO  3   1   1   3   3  15   2
V    1 *
V    3 *
V   15 *
M  END
>  <symbol>  (455) 
D_Phe_3OMe

>  <m_Rgroups>  (455) 
[H],[OH],[H],None,None,None

>  <m_abbr>  (455) 
D_Phe_3OMe

>  <m_name>  (455) 
D-3-Methoxyphenylalanine

>  <m_type>  (455) 
aa

>  <m_subtype>  (455) 
modified

>  <m_chem_types>  (455) 
1:backbone_n,2:backbone_c,3:backbone_n_mod

$$$$

     RDKit          2D

 16 16  0  0  0  0  0  0  0  0999 V2000
   -0.2146   -2.5001    0.0000 R   0  0  0  0  0  0  0  0  0  0  0  0
   -0.2154   -1.5001    0.0000 N   0  0  0  0  0  0  0  0  0  0  0  0
   -1.0818   -1.0009    0.0000 R   0  0  0  0  0  0  0  0  0  0  0  0
    0.6502   -0.9995    0.0000 C   0  0  0  0  0  0  0  0  0  0  0  0
    0.6496    0.0005    0.0000 C   0  0  0  0  0  0  0  0  0  0  0  0
   -0.2168    0.4997    0.0000 C   0  0  0  0  0  0  0  0  0  0  0  0
   -1.0824   -0.0007    0.0000 C   0  0  0  0  0  0  0  0  0  0  0  0
   -1.9490    0.4985    0.0000 C   0  0  0  0  0  0  0  0  0  0  0  0
   -1.9498    1.4985    0.0000 C   0  0  0  0  0  0  0  0  0  0  0  0
   -1.0840    1.9991    0.0000 C   0  0  0  0  0  0  0  0  0  0  0  0
   -0.2176    1.4999    0.0000 C   0  0  0  0  0  0  0  0  0  0  0  0
    0.6480    2.0005    0.0000 O   0  0  0  0  0  0  0  0  0  0  0  0
    0.6472    3.0005    0.0000 C   0  0  0  0  0  0  0  0  0  0  0  0
    1.5166   -1.4987    0.0000 C   0  0  0  0  0  0  0  0  0  0  0  0
    1.5174   -2.4987    0.0000 R   0  0  0  0  0  0  0  0  0  0  0  0
    2.3822   -0.9981    0.0000 O   0  0  0  0  0  0  0  0  0  0  0  0
  1  2  1  0
  2  3  1  0
  2  4  1  0
  4  5  1  6
  5  6  1  0
  6  7  2  0
  7  8  1  0
  8  9  2  0
  9 10  1  0
 10 11  2  0
 11 12  1  0
 12 13  1  0
  4 14  1  0
 14 15  1  0
 14 16  2  0
 11  6  1  0
M  ISO  3   1   1   3   3  15   2
V    1 *
V    3 *
V   15 *
M  END
>  <symbol>  (456) 
D_Phe_2OMe

>  <m_Rgroups>  (456) 
[H],[OH],[H],None,None,None

>  <m_abbr>  (456) 
D_Phe_2OMe

>  <m_name>  (456) 
D-2-Methoxyphenylalanine

>  <m_type>  (456) 
aa

>  <m_subtype>  (456) 
modified

>  <m_chem_types>  (456) 
1:backbone_n,2:backbone_c,3:backbone_n_mod

$$$$

     RDKit          2D

 15 15  0  0  0  0  0  0  0  0999 V2000
   -0.1714   -2.3002    0.0000 R   0  0  0  0  0  0  0  0  0  0  0  0
   -0.1722   -1.3002    0.0000 N   0  0  0  0  0  0  0  0  0  0  0  0
   -1.0386   -0.8008    0.0000 R   0  0  0  0  0  0  0  0  0  0  0  0
    0.6934   -0.7994    0.0000 C   0  0  0  0  0  0  0  0  0  0  0  0
    0.6926    0.2006    0.0000 C   0  0  0  0  0  0  0  0  0  0  0  0
   -0.1736    0.6998    0.0000 C   0  0  0  0  0  0  0  0  0  0  0  0
   -1.0394    0.1992    0.0000 C   0  0  0  0  0  0  0  0  0  0  0  0
   -1.9058    0.6984    0.0000 C   0  0  0  0  0  0  0  0  0  0  0  0
   -1.9066    1.6986    0.0000 C   0  0  0  0  0  0  0  0  0  0  0  0
   -1.0410    2.1990    0.0000 C   0  0  0  0  0  0  0  0  0  0  0  0
   -0.1744    1.7000    0.0000 C   0  0  0  0  0  0  0  0  0  0  0  0
    0.6910    2.2006    0.0000 Cl  0  0  0  0  0  0  0  0  0  0  0  0
    1.5598   -1.2988    0.0000 C   0  0  0  0  0  0  0  0  0  0  0  0
    1.5606   -2.2988    0.0000 R   0  0  0  0  0  0  0  0  0  0  0  0
    2.4254   -0.7980    0.0000 O   0  0  0  0  0  0  0  0  0  0  0  0
  1  2  1  0
  2  3  1  0
  2  4  1  0
  4  5  1  6
  5  6  1  0
  6  7  2  0
  7  8  1  0
  8  9  2  0
  9 10  1  0
 10 11  2  0
 11 12  1  0
  4 13  1  0
 13 14  1  0
 13 15  2  0
 11  6  1  0
M  ISO  3   1   1   3   3  14   2
V    1 *
V    3 *
V   14 *
M  END
>  <symbol>  (457) 
D_Phe_2Cl

>  <m_Rgroups>  (457) 
[H],[OH],[H],None,None,None

>  <m_abbr>  (457) 
D_Phe_2Cl

>  <m_name>  (457) 
D-2-Chlorophenylalanine

>  <m_type>  (457) 
aa

>  <m_subtype>  (457) 
modified

>  <m_chem_types>  (457) 
1:backbone_n,2:backbone_c,3:backbone_n_mod

$$$$

     RDKit          2D

 15 15  0  0  0  0  0  0  0  0999 V2000
   -0.1714   -2.3002    0.0000 R   0  0  0  0  0  0  0  0  0  0  0  0
   -0.1722   -1.3002    0.0000 N   0  0  0  0  0  0  0  0  0  0  0  0
   -1.0386   -0.8008    0.0000 R   0  0  0  0  0  0  0  0  0  0  0  0
    0.6934   -0.7994    0.0000 C   0  0  0  0  0  0  0  0  0  0  0  0
    0.6926    0.2006    0.0000 C   0  0  0  0  0  0  0  0  0  0  0  0
   -0.1736    0.6998    0.0000 C   0  0  0  0  0  0  0  0  0  0  0  0
   -1.0394    0.1992    0.0000 C   0  0  0  0  0  0  0  0  0  0  0  0
   -1.9058    0.6984    0.0000 C   0  0  0  0  0  0  0  0  0  0  0  0
   -1.9066    1.6986    0.0000 C   0  0  0  0  0  0  0  0  0  0  0  0
   -1.0410    2.1990    0.0000 C   0  0  0  0  0  0  0  0  0  0  0  0
   -0.1744    1.7000    0.0000 C   0  0  0  0  0  0  0  0  0  0  0  0
    0.6910    2.2006    0.0000 Br  0  0  0  0  0  0  0  0  0  0  0  0
    1.5598   -1.2988    0.0000 C   0  0  0  0  0  0  0  0  0  0  0  0
    1.5606   -2.2988    0.0000 R   0  0  0  0  0  0  0  0  0  0  0  0
    2.4254   -0.7980    0.0000 O   0  0  0  0  0  0  0  0  0  0  0  0
  1  2  1  0
  2  3  1  0
  2  4  1  0
  4  5  1  6
  5  6  1  0
  6  7  2  0
  7  8  1  0
  8  9  2  0
  9 10  1  0
 10 11  2  0
 11 12  1  0
  4 13  1  0
 13 14  1  0
 13 15  2  0
 11  6  1  0
M  ISO  3   1   1   3   3  14   2
V    1 *
V    3 *
V   14 *
M  END
>  <symbol>  (458) 
D_Phe_2Br

>  <m_Rgroups>  (458) 
[H],[OH],[H],None,None,None

>  <m_abbr>  (458) 
D_Phe_2Br

>  <m_name>  (458) 
D-2-Bromophenylalanine

>  <m_type>  (458) 
aa

>  <m_subtype>  (458) 
modified

>  <m_chem_types>  (458) 
1:backbone_n,2:backbone_c,3:backbone_n_mod

$$$$

     RDKit          2D

 15 15  0  0  0  0  0  0  0  0999 V2000
   -0.0559   -2.3667    0.0000 R   0  0  0  0  0  0  0  0  0  0  0  0
   -0.0567   -1.3667    0.0000 N   0  0  0  0  0  0  0  0  0  0  0  0
   -0.9231   -0.8673    0.0000 R   0  0  0  0  0  0  0  0  0  0  0  0
    0.8089   -0.8659    0.0000 C   0  0  0  0  0  0  0  0  0  0  0  0
    0.8081    0.1341    0.0000 C   0  0  0  0  0  0  0  0  0  0  0  0
   -0.0581    0.6333    0.0000 C   0  0  0  0  0  0  0  0  0  0  0  0
   -0.9239    0.1327    0.0000 C   0  0  0  0  0  0  0  0  0  0  0  0
   -1.7903    0.6319    0.0000 C   0  0  0  0  0  0  0  0  0  0  0  0
   -1.7911    1.6319    0.0000 C   0  0  0  0  0  0  0  0  0  0  0  0
   -0.9253    2.1325    0.0000 C   0  0  0  0  0  0  0  0  0  0  0  0
   -0.9261    3.1327    0.0000 Br  0  0  0  0  0  0  0  0  0  0  0  0
   -0.0589    1.6333    0.0000 C   0  0  0  0  0  0  0  0  0  0  0  0
    1.6753   -1.3653    0.0000 C   0  0  0  0  0  0  0  0  0  0  0  0
    1.6761   -2.3653    0.0000 R   0  0  0  0  0  0  0  0  0  0  0  0
    2.5409   -0.8647    0.0000 O   0  0  0  0  0  0  0  0  0  0  0  0
  1  2  1  0
  2  3  1  0
  2  4  1  0
  4  5  1  6
  5  6  1  0
  6  7  2  0
  7  8  1  0
  8  9  2  0
  9 10  1  0
 10 11  1  0
 10 12  2  0
  4 13  1  0
 13 14  1  0
 13 15  2  0
 12  6  1  0
M  ISO  3   1   1   3   3  14   2
V    1 *
V    3 *
V   14 *
M  END
>  <symbol>  (459) 
D_Phe_3Br

>  <m_Rgroups>  (459) 
[H],[OH],[H],None,None,None

>  <m_abbr>  (459) 
D_Phe_3Br

>  <m_name>  (459) 
D-3-Bromophenylalanine

>  <m_type>  (459) 
aa

>  <m_subtype>  (459) 
modified

>  <m_chem_types>  (459) 
1:backbone_n,2:backbone_c,3:backbone_n_mod

$$$$

     RDKit          2D

 16 16  0  0  0  0  0  0  0  0999 V2000
    0.1102   -2.5000    0.0000 R   0  0  0  0  0  0  0  0  0  0  0  0
    0.1094   -1.5000    0.0000 N   0  0  0  0  0  0  0  0  0  0  0  0
   -0.7570   -1.0005    0.0000 R   0  0  0  0  0  0  0  0  0  0  0  0
    0.9750   -0.9991    0.0000 C   0  0  0  0  0  0  0  0  0  0  0  0
    0.9742    0.0009    0.0000 C   0  0  0  0  0  0  0  0  0  0  0  0
    0.1080    0.5001    0.0000 C   0  0  0  0  0  0  0  0  0  0  0  0
   -0.7578   -0.0005    0.0000 C   0  0  0  0  0  0  0  0  0  0  0  0
   -1.6242    0.4987    0.0000 C   0  0  0  0  0  0  0  0  0  0  0  0
   -1.6250    1.4986    0.0000 C   0  0  0  0  0  0  0  0  0  0  0  0
   -2.4914    1.9980    0.0000 F   0  0  0  0  0  0  0  0  0  0  0  0
   -0.7594    1.9993    0.0000 C   0  0  0  0  0  0  0  0  0  0  0  0
   -0.7602    2.9994    0.0000 F   0  0  0  0  0  0  0  0  0  0  0  0
    0.1072    1.5000    0.0000 C   0  0  0  0  0  0  0  0  0  0  0  0
    1.8414   -1.4985    0.0000 C   0  0  0  0  0  0  0  0  0  0  0  0
    1.8422   -2.4985    0.0000 R   0  0  0  0  0  0  0  0  0  0  0  0
    2.7070   -0.9977    0.0000 O   0  0  0  0  0  0  0  0  0  0  0  0
  1  2  1  0
  2  3  1  0
  2  4  1  0
  4  5  1  6
  5  6  1  0
  6  7  1  0
  7  8  2  0
  8  9  1  0
  9 10  1  0
  9 11  2  0
 11 12  1  0
 11 13  1  0
  4 14  1  0
 14 15  1  0
 14 16  2  0
 13  6  2  0
M  ISO  3   1   1   3   3  15   2
V    1 *
V    3 *
V   15 *
M  END
>  <symbol>  (460) 
D_Phe_34diF

>  <m_Rgroups>  (460) 
[H],[OH],[H],None,None,None

>  <m_abbr>  (460) 
D_Phe_34diF

>  <m_name>  (460) 
D-3,4-Difluorophenylalanine

>  <m_type>  (460) 
aa

>  <m_subtype>  (460) 
modified

>  <m_chem_types>  (460) 
1:backbone_n,2:backbone_c,3:backbone_n_mod

$$$$

     RDKit          2D

 16 16  0  0  0  0  0  0  0  0999 V2000
    0.1102   -2.3750    0.0000 R   0  0  0  0  0  0  0  0  0  0  0  0
    0.1094   -1.3750    0.0000 N   0  0  0  0  0  0  0  0  0  0  0  0
   -0.7570   -0.8755    0.0000 R   0  0  0  0  0  0  0  0  0  0  0  0
    0.9750   -0.8741    0.0000 C   0  0  0  0  0  0  0  0  0  0  0  0
    0.9742    0.1259    0.0000 C   0  0  0  0  0  0  0  0  0  0  0  0
    0.1078    0.6251    0.0000 C   0  0  0  0  0  0  0  0  0  0  0  0
    0.1070    1.6250    0.0000 C   0  0  0  0  0  0  0  0  0  0  0  0
   -0.7594    2.1243    0.0000 C   0  0  0  0  0  0  0  0  0  0  0  0
   -0.7602    3.1244    0.0000 F   0  0  0  0  0  0  0  0  0  0  0  0
   -1.6252    1.6236    0.0000 C   0  0  0  0  0  0  0  0  0  0  0  0
   -1.6244    0.6237    0.0000 C   0  0  0  0  0  0  0  0  0  0  0  0
   -2.4898    0.1231    0.0000 F   0  0  0  0  0  0  0  0  0  0  0  0
   -0.7578    0.1245    0.0000 C   0  0  0  0  0  0  0  0  0  0  0  0
    1.8414   -1.3735    0.0000 C   0  0  0  0  0  0  0  0  0  0  0  0
    1.8422   -2.3735    0.0000 R   0  0  0  0  0  0  0  0  0  0  0  0
    2.7070   -0.8727    0.0000 O   0  0  0  0  0  0  0  0  0  0  0  0
  1  2  1  0
  2  3  1  0
  2  4  1  0
  4  5  1  6
  5  6  1  0
  6  7  2  0
  7  8  1  0
  8  9  1  0
  8 10  2  0
 10 11  1  0
 11 12  1  0
 11 13  2  0
  4 14  1  0
 14 15  1  0
 14 16  2  0
 13  6  1  0
M  ISO  3   1   1   3   3  15   2
V    1 *
V    3 *
V   15 *
M  END
>  <symbol>  (461) 
D_Phe_35diF

>  <m_Rgroups>  (461) 
[H],[OH],[H],None,None,None

>  <m_abbr>  (461) 
D_Phe_35diF

>  <m_name>  (461) 
D-3,5-Difluorophenylalanine

>  <m_type>  (461) 
aa

>  <m_subtype>  (461) 
modified

>  <m_chem_types>  (461) 
1:backbone_n,2:backbone_c,3:backbone_n_mod

$$$$

     RDKit          2D

 16 16  0  0  0  0  0  0  0  0999 V2000
   -0.2616   -2.5796    0.0000 R   0  0  0  0  0  0  0  0  0  0  0  0
   -0.3074   -1.5582    0.0000 N   0  0  0  0  0  0  0  0  0  0  0  0
   -1.2334   -1.1248    0.0000 R   0  0  0  0  0  0  0  0  0  0  0  0
    0.6856   -0.9592    0.0000 C   0  0  0  0  0  0  0  0  0  0  0  0
    0.8324    0.2806    0.0000 C   0  0  0  0  0  0  0  0  0  0  0  0
   -0.0052    1.0070    0.0000 C   0  0  0  0  0  0  0  0  0  0  0  0
    0.0178    2.0092    0.0000 C   0  0  0  0  0  0  0  0  0  0  0  0
    0.8926    2.4954    0.0000 F   0  0  0  0  0  0  0  0  0  0  0  0
   -0.8362    2.5336    0.0000 C   0  0  0  0  0  0  0  0  0  0  0  0
   -1.7128    2.0534    0.0000 C   0  0  0  0  0  0  0  0  0  0  0  0
   -1.7366    1.0528    0.0000 C   0  0  0  0  0  0  0  0  0  0  0  0
   -0.8812    0.5322    0.0000 C   0  0  0  0  0  0  0  0  0  0  0  0
   -0.8586   -0.4208    0.0000 F   0  0  0  0  0  0  0  0  0  0  0  0
    1.5322   -1.5664    0.0000 C   0  0  0  0  0  0  0  0  0  0  0  0
    1.4276   -2.5818    0.0000 R   0  0  0  0  0  0  0  0  0  0  0  0
    2.4442   -1.1734    0.0000 O   0  0  0  0  0  0  0  0  0  0  0  0
  1  2  1  0
  2  3  1  0
  2  4  1  0
  4  5  1  6
  5  6  1  0
  6  7  2  0
  7  8  1  0
  7  9  1  0
  9 10  2  0
 10 11  1  0
 11 12  2  0
 12 13  1  0
  4 14  1  0
 14 15  1  0
 14 16  2  0
 12  6  1  0
M  ISO  3   1   1   3   3  15   2
V    1 *
V    3 *
V   15 *
M  END
>  <symbol>  (462) 
D_Phe_26diF

>  <m_Rgroups>  (462) 
[H],[OH],[H],None,None,None

>  <m_abbr>  (462) 
D_Phe_26diF

>  <m_name>  (462) 
D-2,6-Difluorophenylalanine

>  <m_type>  (462) 
aa

>  <m_subtype>  (462) 
modified

>  <m_chem_types>  (462) 
1:backbone_n,2:backbone_c,3:backbone_n_mod

$$$$

     RDKit          2D

 16 16  0  0  0  0  0  0  0  0999 V2000
    0.0019   -2.4374    0.0000 R   0  0  0  0  0  0  0  0  0  0  0  0
    0.0011   -1.4374    0.0000 N   0  0  0  0  0  0  0  0  0  0  0  0
   -0.8653   -0.9382    0.0000 R   0  0  0  0  0  0  0  0  0  0  0  0
    0.8667   -0.9368    0.0000 C   0  0  0  0  0  0  0  0  0  0  0  0
    0.8659    0.0632    0.0000 C   0  0  0  0  0  0  0  0  0  0  0  0
   -0.0003    0.5624    0.0000 C   0  0  0  0  0  0  0  0  0  0  0  0
   -0.8661    0.0618    0.0000 C   0  0  0  0  0  0  0  0  0  0  0  0
   -1.7325    0.5610    0.0000 C   0  0  0  0  0  0  0  0  0  0  0  0
   -1.7333    1.5612    0.0000 C   0  0  0  0  0  0  0  0  0  0  0  0
   -2.5997    2.0604    0.0000 F   0  0  0  0  0  0  0  0  0  0  0  0
   -0.8677    2.0618    0.0000 C   0  0  0  0  0  0  0  0  0  0  0  0
   -0.0011    1.5626    0.0000 C   0  0  0  0  0  0  0  0  0  0  0  0
    0.8643    2.0632    0.0000 F   0  0  0  0  0  0  0  0  0  0  0  0
    1.7331   -1.4362    0.0000 C   0  0  0  0  0  0  0  0  0  0  0  0
    1.7339   -2.4362    0.0000 R   0  0  0  0  0  0  0  0  0  0  0  0
    2.5987   -0.9354    0.0000 O   0  0  0  0  0  0  0  0  0  0  0  0
  1  2  1  0
  2  3  1  0
  2  4  1  0
  4  5  1  6
  5  6  1  0
  6  7  1  0
  7  8  2  0
  8  9  1  0
  9 10  1  0
  9 11  2  0
 11 12  1  0
 12 13  1  0
  4 14  1  0
 14 15  1  0
 14 16  2  0
 12  6  2  0
M  ISO  3   1   1   3   3  15   2
V    1 *
V    3 *
V   15 *
M  END
>  <symbol>  (463) 
D_Phe_24diF

>  <m_Rgroups>  (463) 
[H],[OH],[H],None,None,None

>  <m_abbr>  (463) 
D_Phe_24diF

>  <m_name>  (463) 
D-2,4-Difluorophenylalanine

>  <m_type>  (463) 
aa

>  <m_subtype>  (463) 
modified

>  <m_chem_types>  (463) 
1:backbone_n,2:backbone_c,3:backbone_n_mod

$$$$

     RDKit          2D

 18 18  0  0  0  0  0  0  0  0999 V2000
    0.5590   -2.6752    0.0000 R   0  0  0  0  0  0  0  0  0  0  0  0
    0.5610   -1.6752    0.0000 N   0  0  0  0  0  0  0  0  0  0  0  0
   -0.3040   -1.1734    0.0000 R   0  0  0  0  0  0  0  0  0  0  0  0
    1.4282   -1.1770    0.0000 C   0  0  0  0  0  0  0  0  0  0  0  0
    1.4302   -0.1770    0.0000 C   0  0  0  0  0  0  0  0  0  0  0  0
    0.5652    0.3248    0.0000 C   0  0  0  0  0  0  0  0  0  0  0  0
    0.5670    1.3246    0.0000 C   0  0  0  0  0  0  0  0  0  0  0  0
   -0.2978    1.8266    0.0000 C   0  0  0  0  0  0  0  0  0  0  0  0
   -1.1650    1.3282    0.0000 C   0  0  0  0  0  0  0  0  0  0  0  0
   -2.0298    1.8298    0.0000 C   0  0  0  0  0  0  0  0  0  0  0  0
   -2.5316    0.9648    0.0000 C   0  0  0  0  0  0  0  0  0  0  0  0
   -3.0298    1.8320    0.0000 C   0  0  0  0  0  0  0  0  0  0  0  0
   -2.0278    2.8298    0.0000 C   0  0  0  0  0  0  0  0  0  0  0  0
   -1.1668    0.3282    0.0000 C   0  0  0  0  0  0  0  0  0  0  0  0
   -0.3020   -0.1736    0.0000 C   0  0  0  0  0  0  0  0  0  0  0  0
    2.2932   -1.6786    0.0000 C   0  0  0  0  0  0  0  0  0  0  0  0
    2.2912   -2.6786    0.0000 R   0  0  0  0  0  0  0  0  0  0  0  0
    3.1602   -1.1804    0.0000 O   0  0  0  0  0  0  0  0  0  0  0  0
  1  2  1  0
  2  3  1  0
  2  4  1  0
  4  5  1  6
  5  6  1  0
  6  7  1  0
  7  8  2  0
  8  9  1  0
  9 10  1  0
 10 11  1  0
 10 12  1  0
 10 13  1  0
  9 14  2  0
 14 15  1  0
  4 16  1  0
 16 17  1  0
 16 18  2  0
 15  6  2  0
M  ISO  3   1   1   3   3  17   2
V    1 *
V    3 *
V   17 *
M  END
>  <symbol>  (464) 
D_Phe_4tBu

>  <m_Rgroups>  (464) 
[H],[OH],[H],None,None,None

>  <m_abbr>  (464) 
D_Phe_4tBu

>  <m_name>  (464) 
D-4-tert-Butylphenylalanine

>  <m_type>  (464) 
aa

>  <m_subtype>  (464) 
modified

>  <m_chem_types>  (464) 
1:backbone_n,2:backbone_c,3:backbone_n_mod

$$$$

     RDKit          2D

 19 19  0  0  0  0  0  0  0  0999 V2000
    0.0796   -2.9335    0.0000 R   0  0  0  0  0  0  0  0  0  0  0  0
    0.0254   -1.9109    0.0000 N   0  0  0  0  0  0  0  0  0  0  0  0
   -0.9046   -1.4855    0.0000 R   0  0  0  0  0  0  0  0  0  0  0  0
    1.0120   -1.3041    0.0000 C   0  0  0  0  0  0  0  0  0  0  0  0
    1.1476   -0.0635    0.0000 C   0  0  0  0  0  0  0  0  0  0  0  0
    0.3028    0.6591    0.0000 C   0  0  0  0  0  0  0  0  0  0  0  0
    0.3224    1.6609    0.0000 C   0  0  0  0  0  0  0  0  0  0  0  0
    1.1930    2.1501    0.0000 F   0  0  0  0  0  0  0  0  0  0  0  0
   -0.5372    2.1769    0.0000 C   0  0  0  0  0  0  0  0  0  0  0  0
   -0.5260    3.1781    0.0000 F   0  0  0  0  0  0  0  0  0  0  0  0
   -1.4124    1.6943    0.0000 C   0  0  0  0  0  0  0  0  0  0  0  0
   -2.2730    2.2025    0.0000 F   0  0  0  0  0  0  0  0  0  0  0  0
   -1.4266    0.6941    0.0000 C   0  0  0  0  0  0  0  0  0  0  0  0
   -2.2986    0.2021    0.0000 F   0  0  0  0  0  0  0  0  0  0  0  0
   -0.5690    0.1767    0.0000 C   0  0  0  0  0  0  0  0  0  0  0  0
   -0.5424   -0.7751    0.0000 F   0  0  0  0  0  0  0  0  0  0  0  0
    1.8644   -1.9027    0.0000 C   0  0  0  0  0  0  0  0  0  0  0  0
    1.7710   -2.9191    0.0000 R   0  0  0  0  0  0  0  0  0  0  0  0
    2.7720   -1.4999    0.0000 O   0  0  0  0  0  0  0  0  0  0  0  0
  1  2  1  0
  2  3  1  0
  2  4  1  0
  4  5  1  6
  5  6  1  0
  6  7  2  0
  7  8  1  0
  7  9  1  0
  9 10  1  0
  9 11  2  0
 11 12  1  0
 11 13  1  0
 13 14  1  0
 13 15  2  0
 15 16  1  0
  4 17  1  0
 17 18  1  0
 17 19  2  0
 15  6  1  0
M  ISO  3   1   1   3   3  18   2
V    1 *
V    3 *
V   18 *
M  END
>  <symbol>  (465) 
D_Phe_F5

>  <m_Rgroups>  (465) 
[H],[OH],[H],None,None,None

>  <m_abbr>  (465) 
D_Phe_F5

>  <m_name>  (465) 
D-Pentafluorophenylalanine

>  <m_type>  (465) 
aa

>  <m_subtype>  (465) 
modified

>  <m_chem_types>  (465) 
1:backbone_n,2:backbone_c,3:backbone_n_mod

$$$$

     RDKit          2D

 17 17  0  0  0  0  0  0  0  0999 V2000
    0.3982   -2.5896    0.0000 R   0  0  0  0  0  0  0  0  0  0  0  0
    0.4018   -1.5896    0.0000 N   0  0  0  0  0  0  0  0  0  0  0  0
   -0.4624   -1.0866    0.0000 R   0  0  0  0  0  0  0  0  0  0  0  0
    1.2696   -1.0928    0.0000 C   0  0  0  0  0  0  0  0  0  0  0  0
    1.2732   -0.0928    0.0000 C   0  0  0  0  0  0  0  0  0  0  0  0
    0.4090    0.4102    0.0000 C   0  0  0  0  0  0  0  0  0  0  0  0
   -0.4588   -0.0866    0.0000 C   0  0  0  0  0  0  0  0  0  0  0  0
   -1.3230    0.4166    0.0000 C   0  0  0  0  0  0  0  0  0  0  0  0
   -1.3194    1.4164    0.0000 C   0  0  0  0  0  0  0  0  0  0  0  0
   -2.1836    1.9196    0.0000 C   0  0  0  0  0  0  0  0  0  0  0  0
   -2.1800    2.9196    0.0000 C   0  0  0  0  0  0  0  0  0  0  0  0
   -3.0514    1.4226    0.0000 O   0  0  0  0  0  0  0  0  0  0  0  0
   -0.4516    1.9134    0.0000 C   0  0  0  0  0  0  0  0  0  0  0  0
    0.4126    1.4102    0.0000 C   0  0  0  0  0  0  0  0  0  0  0  0
    2.1338   -1.5958    0.0000 C   0  0  0  0  0  0  0  0  0  0  0  0
    2.1302   -2.5958    0.0000 R   0  0  0  0  0  0  0  0  0  0  0  0
    3.0016   -1.0990    0.0000 O   0  0  0  0  0  0  0  0  0  0  0  0
  1  2  1  0
  2  3  1  0
  2  4  1  0
  4  5  1  6
  5  6  1  0
  6  7  1  0
  7  8  2  0
  8  9  1  0
  9 10  1  0
 10 11  1  0
 10 12  2  0
  9 13  2  0
 13 14  1  0
  4 15  1  0
 15 16  1  0
 15 17  2  0
 14  6  2  0
M  ISO  3   1   1   3   3  16   2
V    1 *
V    3 *
V   16 *
M  END
>  <symbol>  (466) 
D_Phe_4Ac

>  <m_Rgroups>  (466) 
[H],[OH],[H],None,None,None

>  <m_abbr>  (466) 
D_Phe_4Ac

>  <m_name>  (466) 
D-4-Acetylphenylalanine

>  <m_type>  (466) 
aa

>  <m_subtype>  (466) 
modified

>  <m_chem_types>  (466) 
1:backbone_n,2:backbone_c,3:backbone_n_mod

$$$$

     RDKit          2D

 17 17  0  0  0  0  0  0  0  0999 V2000
   -0.3036   -2.5884    0.0000 R   0  0  0  0  0  0  0  0  0  0  0  0
   -0.3044   -1.5884    0.0000 N   0  0  0  0  0  0  0  0  0  0  0  0
   -1.1708   -1.0892    0.0000 R   0  0  0  0  0  0  0  0  0  0  0  0
    0.5612   -1.0878    0.0000 C   0  0  0  0  0  0  0  0  0  0  0  0
    0.5604   -0.0878    0.0000 C   0  0  0  0  0  0  0  0  0  0  0  0
   -0.3060    0.4116    0.0000 C   0  0  0  0  0  0  0  0  0  0  0  0
   -1.1716   -0.0890    0.0000 C   0  0  0  0  0  0  0  0  0  0  0  0
   -2.0380    0.4102    0.0000 C   0  0  0  0  0  0  0  0  0  0  0  0
   -2.0388    1.4102    0.0000 C   0  0  0  0  0  0  0  0  0  0  0  0
   -1.1732    1.9108    0.0000 C   0  0  0  0  0  0  0  0  0  0  0  0
   -0.3068    1.4116    0.0000 C   0  0  0  0  0  0  0  0  0  0  0  0
    0.5588    1.9122    0.0000 N   0  0  0  0  0  0  0  0  0  0  0  0
    1.4252    1.4130    0.0000 O   0  0  0  0  0  0  0  0  0  0  0  0
    0.5580    2.9122    0.0000 O   0  0  0  0  0  0  0  0  0  0  0  0
    1.4276   -1.5870    0.0000 C   0  0  0  0  0  0  0  0  0  0  0  0
    1.4284   -2.5870    0.0000 R   0  0  0  0  0  0  0  0  0  0  0  0
    2.2932   -1.0864    0.0000 O   0  0  0  0  0  0  0  0  0  0  0  0
  1  2  1  0
  2  3  1  0
  2  4  1  0
  4  5  1  6
  5  6  1  0
  6  7  2  0
  7  8  1  0
  8  9  2  0
  9 10  1  0
 10 11  2  0
 11 12  1  0
 12 13  2  0
 12 14  1  0
  4 15  1  0
 15 16  1  0
 15 17  2  0
 11  6  1  0
M  CHG  2  12   1  14  -1
M  ISO  3   1   1   3   3  16   2
V    1 *
V    3 *
V   16 *
M  END
>  <symbol>  (467) 
D_Phe_2NO2

>  <m_Rgroups>  (467) 
[H],[OH],[H],None,None,None

>  <m_abbr>  (467) 
D_Phe_2NO2

>  <m_name>  (467) 
D-2-Nitrophenylalanine

>  <m_type>  (467) 
aa

>  <m_subtype>  (467) 
modified

>  <m_chem_types>  (467) 
1:backbone_n,2:backbone_c,3:backbone_n_mod

$$$$

     RDKit          2D

 17 17  0  0  0  0  0  0  0  0999 V2000
    0.0532   -2.7940    0.0000 R   0  0  0  0  0  0  0  0  0  0  0  0
    0.0524   -1.7940    0.0000 N   0  0  0  0  0  0  0  0  0  0  0  0
   -0.8140   -1.2948    0.0000 R   0  0  0  0  0  0  0  0  0  0  0  0
    0.9180   -1.2934    0.0000 C   0  0  0  0  0  0  0  0  0  0  0  0
    0.9172   -0.2934    0.0000 C   0  0  0  0  0  0  0  0  0  0  0  0
    0.0510    0.2060    0.0000 C   0  0  0  0  0  0  0  0  0  0  0  0
   -0.8148   -0.2946    0.0000 C   0  0  0  0  0  0  0  0  0  0  0  0
   -1.6812    0.2046    0.0000 C   0  0  0  0  0  0  0  0  0  0  0  0
   -1.6820    1.2046    0.0000 C   0  0  0  0  0  0  0  0  0  0  0  0
   -0.8164    1.7052    0.0000 C   0  0  0  0  0  0  0  0  0  0  0  0
   -0.8172    2.7052    0.0000 N   0  0  0  0  0  0  0  0  0  0  0  0
    0.0484    3.2060    0.0000 O   0  0  0  0  0  0  0  0  0  0  0  0
   -1.6836    3.2046    0.0000 O   0  0  0  0  0  0  0  0  0  0  0  0
    0.0502    1.2060    0.0000 C   0  0  0  0  0  0  0  0  0  0  0  0
    1.7844   -1.7926    0.0000 C   0  0  0  0  0  0  0  0  0  0  0  0
    1.7852   -2.7926    0.0000 R   0  0  0  0  0  0  0  0  0  0  0  0
    2.6500   -1.2920    0.0000 O   0  0  0  0  0  0  0  0  0  0  0  0
  1  2  1  0
  2  3  1  0
  2  4  1  0
  4  5  1  6
  5  6  1  0
  6  7  1  0
  7  8  2  0
  8  9  1  0
  9 10  2  0
 10 11  1  0
 11 12  2  0
 11 13  1  0
 10 14  1  0
  4 15  1  0
 15 16  1  0
 15 17  2  0
 14  6  2  0
M  CHG  2  11   1  13  -1
M  ISO  3   1   1   3   3  16   2
V    1 *
V    3 *
V   16 *
M  END
>  <symbol>  (468) 
D_Phe_3NO2

>  <m_Rgroups>  (468) 
[H],[OH],[H],None,None,None

>  <m_abbr>  (468) 
D_Phe_3NO2

>  <m_name>  (468) 
D-3-Nitrophenylalanine

>  <m_type>  (468) 
aa

>  <m_subtype>  (468) 
modified

>  <m_chem_types>  (468) 
1:backbone_n,2:backbone_c,3:backbone_n_mod

$$$$

     RDKit          2D

 16 16  0  0  0  0  0  0  0  0999 V2000
    0.0562   -2.5937    0.0000 R   0  0  0  0  0  0  0  0  0  0  0  0
    0.0554   -1.5937    0.0000 N   0  0  0  0  0  0  0  0  0  0  0  0
   -0.8110   -1.0945    0.0000 R   0  0  0  0  0  0  0  0  0  0  0  0
    0.9210   -1.0931    0.0000 C   0  0  0  0  0  0  0  0  0  0  0  0
    0.9202   -0.0931    0.0000 C   0  0  0  0  0  0  0  0  0  0  0  0
    0.0540    0.4063    0.0000 C   0  0  0  0  0  0  0  0  0  0  0  0
   -0.8118   -0.0943    0.0000 C   0  0  0  0  0  0  0  0  0  0  0  0
   -1.6782    0.4049    0.0000 C   0  0  0  0  0  0  0  0  0  0  0  0
   -1.6790    1.4049    0.0000 C   0  0  0  0  0  0  0  0  0  0  0  0
   -0.8134    1.9055    0.0000 C   0  0  0  0  0  0  0  0  0  0  0  0
   -0.8142    2.9055    0.0000 O   0  0  0  0  0  0  0  0  0  0  0  0
   -1.6806    3.4049    0.0000 R   0  0  0  0  0  0  0  0  0  0  0  0
    0.0532    1.4063    0.0000 C   0  0  0  0  0  0  0  0  0  0  0  0
    1.7874   -1.5923    0.0000 C   0  0  0  0  0  0  0  0  0  0  0  0
    1.7882   -2.5923    0.0000 R   0  0  0  0  0  0  0  0  0  0  0  0
    2.6530   -1.0917    0.0000 O   0  0  0  0  0  0  0  0  0  0  0  0
  1  2  1  0
  2  3  1  0
  2  4  1  0
  4  5  1  6
  5  6  1  0
  6  7  1  0
  7  8  2  0
  8  9  1  0
  9 10  2  0
 10 11  1  0
 11 12  1  0
 10 13  1  0
  4 14  1  0
 14 15  1  0
 14 16  2  0
 13  6  2  0
M  ISO  4   1   1   3   3  12   4  15   2
V    1 *
V    3 *
V   12 *
V   15 *
M  END
>  <symbol>  (469) 
D_Phe_3OH

>  <m_Rgroups>  (469) 
[H],[OH],[H],[H],None,None

>  <m_abbr>  (469) 
D_Phe_3OH

>  <m_name>  (469) 
D-3-Hydroxyphenylalanine

>  <m_type>  (469) 
aa

>  <m_subtype>  (469) 
modified

>  <m_chem_types>  (469) 
1:backbone_n,2:backbone_c,3:backbone_n_mod,4:hydroxyl_phenolic

$$$$

     RDKit          2D

 19 20  0  0  0  0  0  0  0  0999 V2000
    0.0858   -3.0358    0.0000 R   0  0  0  0  0  0  0  0  0  0  0  0
    0.0862   -2.0360    0.0000 N   0  0  0  0  0  0  0  0  0  0  0  0
   -0.7796   -1.5358    0.0000 R   0  0  0  0  0  0  0  0  0  0  0  0
    0.9524   -1.5364    0.0000 C   0  0  0  0  0  0  0  0  0  0  0  0
    0.9528   -0.5364    0.0000 C   0  0  0  0  0  0  0  0  0  0  0  0
    0.0872   -0.0360    0.0000 C   0  0  0  0  0  0  0  0  0  0  0  0
   -0.8266   -0.4420    0.0000 C   0  0  0  0  0  0  0  0  0  0  0  0
   -1.4954    0.3012    0.0000 N   0  0  0  0  0  0  0  0  0  0  0  0
   -2.4898    0.1974    0.0000 R   0  0  0  0  0  0  0  0  0  0  0  0
   -0.9948    1.1672    0.0000 C   0  0  0  0  0  0  0  0  0  0  0  0
   -1.3032    2.1184    0.0000 C   0  0  0  0  0  0  0  0  0  0  0  0
   -0.6338    2.8612    0.0000 C   0  0  0  0  0  0  0  0  0  0  0  0
   -0.9422    3.8122    0.0000 F   0  0  0  0  0  0  0  0  0  0  0  0
    0.3444    2.6526    0.0000 C   0  0  0  0  0  0  0  0  0  0  0  0
    0.6526    1.7014    0.0000 C   0  0  0  0  0  0  0  0  0  0  0  0
   -0.0168    0.9586    0.0000 C   0  0  0  0  0  0  0  0  0  0  0  0
    1.8180   -2.0368    0.0000 C   0  0  0  0  0  0  0  0  0  0  0  0
    1.8176   -3.0370    0.0000 R   0  0  0  0  0  0  0  0  0  0  0  0
    2.6844   -1.5372    0.0000 O   0  0  0  0  0  0  0  0  0  0  0  0
  1  2  1  0
  2  3  1  0
  2  4  1  0
  4  5  1  6
  5  6  1  0
  6  7  2  0
  7  8  1  0
  8  9  1  0
  8 10  1  0
 10 11  1  0
 11 12  2  0
 12 13  1  0
 12 14  1  0
 14 15  2  0
 15 16  1  0
  4 17  1  0
 17 18  1  0
 17 19  2  0
 16  6  1  0
 16 10  2  0
M  ISO  4   1   1   3   3   9   4  18   2
V    1 *
V    3 *
V    9 *
V   18 *
M  END
>  <symbol>  (470) 
D_Trp_5F

>  <m_Rgroups>  (470) 
[H],[OH],[H],[H],None,None

>  <m_abbr>  (470) 
D_Trp_5F

>  <m_name>  (470) 
D-5-Fluorotryptophan

>  <m_type>  (470) 
aa

>  <m_subtype>  (470) 
modified

>  <m_chem_types>  (470) 
1:backbone_n,2:backbone_c,3:backbone_n_mod,4:aromatic_nh

$$$$

     RDKit          2D

 19 20  0  0  0  0  0  0  0  0999 V2000
    0.0858   -3.0358    0.0000 R   0  0  0  0  0  0  0  0  0  0  0  0
    0.0862   -2.0360    0.0000 N   0  0  0  0  0  0  0  0  0  0  0  0
   -0.7796   -1.5358    0.0000 R   0  0  0  0  0  0  0  0  0  0  0  0
    0.9524   -1.5364    0.0000 C   0  0  0  0  0  0  0  0  0  0  0  0
    0.9528   -0.5364    0.0000 C   0  0  0  0  0  0  0  0  0  0  0  0
    0.0872   -0.0360    0.0000 C   0  0  0  0  0  0  0  0  0  0  0  0
   -0.8266   -0.4420    0.0000 C   0  0  0  0  0  0  0  0  0  0  0  0
   -1.4954    0.3012    0.0000 N   0  0  0  0  0  0  0  0  0  0  0  0
   -2.4898    0.1974    0.0000 R   0  0  0  0  0  0  0  0  0  0  0  0
   -0.9948    1.1672    0.0000 C   0  0  0  0  0  0  0  0  0  0  0  0
   -1.3032    2.1184    0.0000 C   0  0  0  0  0  0  0  0  0  0  0  0
   -0.6338    2.8612    0.0000 C   0  0  0  0  0  0  0  0  0  0  0  0
   -0.9422    3.8122    0.0000 C   0  0  0  0  0  0  0  0  0  0  0  0
    0.3444    2.6526    0.0000 C   0  0  0  0  0  0  0  0  0  0  0  0
    0.6526    1.7014    0.0000 C   0  0  0  0  0  0  0  0  0  0  0  0
   -0.0168    0.9586    0.0000 C   0  0  0  0  0  0  0  0  0  0  0  0
    1.8180   -2.0368    0.0000 C   0  0  0  0  0  0  0  0  0  0  0  0
    1.8176   -3.0370    0.0000 R   0  0  0  0  0  0  0  0  0  0  0  0
    2.6844   -1.5372    0.0000 O   0  0  0  0  0  0  0  0  0  0  0  0
  1  2  1  0
  2  3  1  0
  2  4  1  0
  4  5  1  6
  5  6  1  0
  6  7  2  0
  7  8  1  0
  8  9  1  0
  8 10  1  0
 10 11  1  0
 11 12  2  0
 12 13  1  0
 12 14  1  0
 14 15  2  0
 15 16  1  0
  4 17  1  0
 17 18  1  0
 17 19  2  0
 16  6  1  0
 16 10  2  0
M  ISO  4   1   1   3   3   9   4  18   2
V    1 *
V    3 *
V    9 *
V   18 *
M  END
>  <symbol>  (471) 
D_Trp_5Me

>  <m_Rgroups>  (471) 
[H],[OH],[H],[H],None,None

>  <m_abbr>  (471) 
D_Trp_5Me

>  <m_name>  (471) 
D-5-Methyltryptophan

>  <m_type>  (471) 
aa

>  <m_subtype>  (471) 
modified

>  <m_chem_types>  (471) 
1:backbone_n,2:backbone_c,3:backbone_n_mod,4:aromatic_nh

$$$$

     RDKit          2D

 19 20  0  0  0  0  0  0  0  0999 V2000
    0.0858   -3.0358    0.0000 R   0  0  0  0  0  0  0  0  0  0  0  0
    0.0862   -2.0360    0.0000 N   0  0  0  0  0  0  0  0  0  0  0  0
   -0.7796   -1.5358    0.0000 R   0  0  0  0  0  0  0  0  0  0  0  0
    0.9524   -1.5364    0.0000 C   0  0  0  0  0  0  0  0  0  0  0  0
    0.9528   -0.5364    0.0000 C   0  0  0  0  0  0  0  0  0  0  0  0
    0.0872   -0.0360    0.0000 C   0  0  0  0  0  0  0  0  0  0  0  0
   -0.8266   -0.4420    0.0000 C   0  0  0  0  0  0  0  0  0  0  0  0
   -1.4954    0.3012    0.0000 N   0  0  0  0  0  0  0  0  0  0  0  0
   -2.4898    0.1974    0.0000 R   0  0  0  0  0  0  0  0  0  0  0  0
   -0.9948    1.1672    0.0000 C   0  0  0  0  0  0  0  0  0  0  0  0
   -1.3032    2.1184    0.0000 C   0  0  0  0  0  0  0  0  0  0  0  0
   -0.6338    2.8612    0.0000 C   0  0  0  0  0  0  0  0  0  0  0  0
   -0.9422    3.8122    0.0000 Br  0  0  0  0  0  0  0  0  0  0  0  0
    0.3444    2.6526    0.0000 C   0  0  0  0  0  0  0  0  0  0  0  0
    0.6526    1.7014    0.0000 C   0  0  0  0  0  0  0  0  0  0  0  0
   -0.0168    0.9586    0.0000 C   0  0  0  0  0  0  0  0  0  0  0  0
    1.8180   -2.0368    0.0000 C   0  0  0  0  0  0  0  0  0  0  0  0
    1.8176   -3.0370    0.0000 R   0  0  0  0  0  0  0  0  0  0  0  0
    2.6844   -1.5372    0.0000 O   0  0  0  0  0  0  0  0  0  0  0  0
  1  2  1  0
  2  3  1  0
  2  4  1  0
  4  5  1  6
  5  6  1  0
  6  7  2  0
  7  8  1  0
  8  9  1  0
  8 10  1  0
 10 11  1  0
 11 12  2  0
 12 13  1  0
 12 14  1  0
 14 15  2  0
 15 16  1  0
  4 17  1  0
 17 18  1  0
 17 19  2  0
 16  6  1  0
 16 10  2  0
M  ISO  4   1   1   3   3   9   4  18   2
V    1 *
V    3 *
V    9 *
V   18 *
M  END
>  <symbol>  (472) 
D_Trp_5Br

>  <m_Rgroups>  (472) 
[H],[OH],[H],[H],None,None

>  <m_abbr>  (472) 
D_Trp_5Br

>  <m_name>  (472) 
D-5-Bromotryptophan

>  <m_type>  (472) 
aa

>  <m_subtype>  (472) 
modified

>  <m_chem_types>  (472) 
1:backbone_n,2:backbone_c,3:backbone_n_mod,4:aromatic_nh

$$$$

     RDKit          2D

 20 21  0  0  0  0  0  0  0  0999 V2000
    0.1818   -3.2370    0.0000 R   0  0  0  0  0  0  0  0  0  0  0  0
    0.1822   -2.2370    0.0000 N   0  0  0  0  0  0  0  0  0  0  0  0
   -0.6834   -1.7368    0.0000 R   0  0  0  0  0  0  0  0  0  0  0  0
    1.0484   -1.7374    0.0000 C   0  0  0  0  0  0  0  0  0  0  0  0
    1.0490   -0.7374    0.0000 C   0  0  0  0  0  0  0  0  0  0  0  0
    0.1834   -0.2370    0.0000 C   0  0  0  0  0  0  0  0  0  0  0  0
   -0.7306   -0.6430    0.0000 C   0  0  0  0  0  0  0  0  0  0  0  0
   -1.3994    0.1002    0.0000 N   0  0  0  0  0  0  0  0  0  0  0  0
   -2.3938   -0.0036    0.0000 R   0  0  0  0  0  0  0  0  0  0  0  0
   -0.8988    0.9660    0.0000 C   0  0  0  0  0  0  0  0  0  0  0  0
   -1.2072    1.9172    0.0000 C   0  0  0  0  0  0  0  0  0  0  0  0
   -0.5378    2.6600    0.0000 C   0  0  0  0  0  0  0  0  0  0  0  0
   -0.8462    3.6112    0.0000 O   0  0  0  0  0  0  0  0  0  0  0  0
   -1.8242    3.8196    0.0000 C   0  0  0  0  0  0  0  0  0  0  0  0
    0.4404    2.4516    0.0000 C   0  0  0  0  0  0  0  0  0  0  0  0
    0.7488    1.5004    0.0000 C   0  0  0  0  0  0  0  0  0  0  0  0
    0.0792    0.7576    0.0000 C   0  0  0  0  0  0  0  0  0  0  0  0
    1.9142   -2.2378    0.0000 C   0  0  0  0  0  0  0  0  0  0  0  0
    1.9136   -3.2380    0.0000 R   0  0  0  0  0  0  0  0  0  0  0  0
    2.7804   -1.7384    0.0000 O   0  0  0  0  0  0  0  0  0  0  0  0
  1  2  1  0
  2  3  1  0
  2  4  1  0
  4  5  1  6
  5  6  1  0
  6  7  2  0
  7  8  1  0
  8  9  1  0
  8 10  1  0
 10 11  1  0
 11 12  2  0
 12 13  1  0
 13 14  1  0
 12 15  1  0
 15 16  2  0
 16 17  1  0
  4 18  1  0
 18 19  1  0
 18 20  2  0
 17  6  1  0
 17 10  2  0
M  ISO  4   1   1   3   3   9   4  19   2
V    1 *
V    3 *
V    9 *
V   19 *
M  END
>  <symbol>  (473) 
D_Trp_5OMe

>  <m_Rgroups>  (473) 
[H],[OH],[H],[H],None,None

>  <m_abbr>  (473) 
D_Trp_5OMe

>  <m_name>  (473) 
D-5-Methoxytryptophan

>  <m_type>  (473) 
aa

>  <m_subtype>  (473) 
modified

>  <m_chem_types>  (473) 
1:backbone_n,2:backbone_c,3:backbone_n_mod,4:aromatic_nh

$$$$

     RDKit          2D

 19 20  0  0  0  0  0  0  0  0999 V2000
   -1.7099   -3.0176    0.0000 R   0  0  0  0  0  0  0  0  0  0  0  0
   -1.7119   -2.0176    0.0000 N   0  0  0  0  0  0  0  0  0  0  0  0
   -2.5791   -1.5194    0.0000 R   0  0  0  0  0  0  0  0  0  0  0  0
   -0.8471   -1.5158    0.0000 C   0  0  0  0  0  0  0  0  0  0  0  0
   -0.8491   -0.5158    0.0000 C   0  0  0  0  0  0  0  0  0  0  0  0
    0.0157   -0.0140    0.0000 C   0  0  0  0  0  0  0  0  0  0  0  0
    0.9301   -0.4186    0.0000 C   0  0  0  0  0  0  0  0  0  0  0  0
    1.5979    0.3258    0.0000 N   0  0  0  0  0  0  0  0  0  0  0  0
    2.5923    0.2236    0.0000 R   0  0  0  0  0  0  0  0  0  0  0  0
    1.0959    1.1908    0.0000 C   0  0  0  0  0  0  0  0  0  0  0  0
    1.4027    2.1424    0.0000 C   0  0  0  0  0  0  0  0  0  0  0  0
    0.7321    2.8842    0.0000 C   0  0  0  0  0  0  0  0  0  0  0  0
   -0.2457    2.6742    0.0000 C   0  0  0  0  0  0  0  0  0  0  0  0
   -0.9163    3.4158    0.0000 F   0  0  0  0  0  0  0  0  0  0  0  0
   -0.5525    1.7224    0.0000 C   0  0  0  0  0  0  0  0  0  0  0  0
    0.1181    0.9808    0.0000 C   0  0  0  0  0  0  0  0  0  0  0  0
    0.0199   -2.0140    0.0000 C   0  0  0  0  0  0  0  0  0  0  0  0
    0.0219   -3.0140    0.0000 R   0  0  0  0  0  0  0  0  0  0  0  0
    0.8849   -1.5124    0.0000 O   0  0  0  0  0  0  0  0  0  0  0  0
  1  2  1  0
  2  3  1  0
  2  4  1  0
  4  5  1  6
  5  6  1  0
  6  7  2  0
  7  8  1  0
  8  9  1  0
  8 10  1  0
 10 11  1  0
 11 12  2  0
 12 13  1  0
 13 14  1  0
 13 15  2  0
 15 16  1  0
  4 17  1  0
 17 18  1  0
 17 19  2  0
 16  6  1  0
 16 10  2  0
M  ISO  4   1   1   3   3   9   4  18   2
V    1 *
V    3 *
V    9 *
V   18 *
M  END
>  <symbol>  (474) 
D_Trp_6F

>  <m_Rgroups>  (474) 
[H],[OH],[H],[H],None,None

>  <m_abbr>  (474) 
D_Trp_6F

>  <m_name>  (474) 
D-6-Fluorotryptophan

>  <m_type>  (474) 
aa

>  <m_subtype>  (474) 
modified

>  <m_chem_types>  (474) 
1:backbone_n,2:backbone_c,3:backbone_n_mod,4:aromatic_nh

$$$$

     RDKit          2D

 18 19  0  0  0  0  0  0  0  0999 V2000
   -1.7608   -2.8281    0.0000 R   0  0  0  0  0  0  0  0  0  0  0  0
   -1.7628   -1.8279    0.0000 N   0  0  0  0  0  0  0  0  0  0  0  0
   -2.6300   -1.3297    0.0000 R   0  0  0  0  0  0  0  0  0  0  0  0
   -0.8980   -1.3261    0.0000 C   0  0  0  0  0  0  0  0  0  0  0  0
   -0.9000   -0.3261    0.0000 C   0  0  0  0  0  0  0  0  0  0  0  0
   -0.0352    0.1757    0.0000 C   0  0  0  0  0  0  0  0  0  0  0  0
    0.8792   -0.2289    0.0000 C   0  0  0  0  0  0  0  0  0  0  0  0
    1.5468    0.5155    0.0000 N   0  0  0  0  0  0  0  0  0  0  0  0
    2.5414    0.4133    0.0000 R   0  0  0  0  0  0  0  0  0  0  0  0
    1.0448    1.3805    0.0000 C   0  0  0  0  0  0  0  0  0  0  0  0
    1.3518    2.3321    0.0000 N   0  0  0  0  0  0  0  0  0  0  0  0
    0.6812    3.0739    0.0000 C   0  0  0  0  0  0  0  0  0  0  0  0
   -0.2966    2.8639    0.0000 C   0  0  0  0  0  0  0  0  0  0  0  0
   -0.6034    1.9121    0.0000 C   0  0  0  0  0  0  0  0  0  0  0  0
    0.0672    1.1705    0.0000 C   0  0  0  0  0  0  0  0  0  0  0  0
   -0.0310   -1.8243    0.0000 C   0  0  0  0  0  0  0  0  0  0  0  0
   -0.0290   -2.8243    0.0000 R   0  0  0  0  0  0  0  0  0  0  0  0
    0.8340   -1.3227    0.0000 O   0  0  0  0  0  0  0  0  0  0  0  0
  1  2  1  0
  2  3  1  0
  2  4  1  0
  4  5  1  6
  5  6  1  0
  6  7  2  0
  7  8  1  0
  8  9  1  0
  8 10  1  0
 10 11  2  0
 11 12  1  0
 12 13  2  0
 13 14  1  0
 14 15  2  0
  4 16  1  0
 16 17  1  0
 16 18  2  0
 15  6  1  0
 15 10  1  0
M  ISO  4   1   1   3   3   9   4  17   2
V    1 *
V    3 *
V    9 *
V   17 *
M  END
>  <symbol>  (475) 
D_Trp_7Aza

>  <m_Rgroups>  (475) 
[H],[OH],[H],[H],None,None

>  <m_abbr>  (475) 
D_Trp_7Aza

>  <m_name>  (475) 
D-7-Azatryptophan

>  <m_type>  (475) 
aa

>  <m_subtype>  (475) 
modified

>  <m_chem_types>  (475) 
1:backbone_n,2:backbone_c,3:backbone_n_mod,4:aromatic_nh

$$$$

     RDKit          2D

 18 19  0  0  0  0  0  0  0  0999 V2000
   -1.7608   -2.8281    0.0000 R   0  0  0  0  0  0  0  0  0  0  0  0
   -1.7628   -1.8279    0.0000 N   0  0  0  0  0  0  0  0  0  0  0  0
   -2.6300   -1.3297    0.0000 R   0  0  0  0  0  0  0  0  0  0  0  0
   -0.8980   -1.3261    0.0000 C   0  0  0  0  0  0  0  0  0  0  0  0
   -0.9000   -0.3261    0.0000 C   0  0  0  0  0  0  0  0  0  0  0  0
   -0.0352    0.1757    0.0000 C   0  0  0  0  0  0  0  0  0  0  0  0
    0.8792   -0.2289    0.0000 C   0  0  0  0  0  0  0  0  0  0  0  0
    1.5468    0.5155    0.0000 N   0  0  0  0  0  0  0  0  0  0  0  0
    2.5414    0.4133    0.0000 C   0  0  0  0  0  0  0  0  0  0  0  0
    1.0448    1.3805    0.0000 C   0  0  0  0  0  0  0  0  0  0  0  0
    1.3518    2.3321    0.0000 C   0  0  0  0  0  0  0  0  0  0  0  0
    0.6812    3.0739    0.0000 C   0  0  0  0  0  0  0  0  0  0  0  0
   -0.2966    2.8639    0.0000 C   0  0  0  0  0  0  0  0  0  0  0  0
   -0.6034    1.9121    0.0000 C   0  0  0  0  0  0  0  0  0  0  0  0
    0.0672    1.1705    0.0000 C   0  0  0  0  0  0  0  0  0  0  0  0
   -0.0310   -1.8243    0.0000 C   0  0  0  0  0  0  0  0  0  0  0  0
   -0.0290   -2.8243    0.0000 R   0  0  0  0  0  0  0  0  0  0  0  0
    0.8340   -1.3227    0.0000 O   0  0  0  0  0  0  0  0  0  0  0  0
  1  2  1  0
  2  3  1  0
  2  4  1  0
  4  5  1  6
  5  6  1  0
  6  7  2  0
  7  8  1  0
  8  9  1  0
  8 10  1  0
 10 11  2  0
 11 12  1  0
 12 13  2  0
 13 14  1  0
 14 15  2  0
  4 16  1  0
 16 17  1  0
 16 18  2  0
 15  6  1  0
 15 10  1  0
M  ISO  3   1   1   3   3  17   2
V    1 *
V    3 *
V   17 *
M  END
>  <symbol>  (476) 
D_Trp_1Me

>  <m_Rgroups>  (476) 
[H],[OH],[H],None,None,None

>  <m_abbr>  (476) 
D_Trp_1Me

>  <m_name>  (476) 
D-1-Methyltryptophan

>  <m_type>  (476) 
aa

>  <m_subtype>  (476) 
modified

>  <m_chem_types>  (476) 
1:backbone_n,2:backbone_c,3:backbone_n_mod

$$$$

     RDKit          2D

 19 20  0  0  0  0  0  0  0  0999 V2000
   -1.8880   -2.9588    0.0000 R   0  0  0  0  0  0  0  0  0  0  0  0
   -1.8886   -1.9588    0.0000 N   0  0  0  0  0  0  0  0  0  0  0  0
   -2.7550   -1.4592    0.0000 R   0  0  0  0  0  0  0  0  0  0  0  0
   -1.0228   -1.4582    0.0000 C   0  0  0  0  0  0  0  0  0  0  0  0
   -1.0234   -0.4582    0.0000 C   0  0  0  0  0  0  0  0  0  0  0  0
   -0.1578    0.0420    0.0000 C   0  0  0  0  0  0  0  0  0  0  0  0
    0.7560   -0.3638    0.0000 C   0  0  0  0  0  0  0  0  0  0  0  0
    1.4250    0.3794    0.0000 N   0  0  0  0  0  0  0  0  0  0  0  0
    2.4194    0.2756    0.0000 R   0  0  0  0  0  0  0  0  0  0  0  0
    0.9244    1.2452    0.0000 C   0  0  0  0  0  0  0  0  0  0  0  0
    1.2328    2.1964    0.0000 C   0  0  0  0  0  0  0  0  0  0  0  0
    2.2108    2.4050    0.0000 F   0  0  0  0  0  0  0  0  0  0  0  0
    0.5632    2.9392    0.0000 C   0  0  0  0  0  0  0  0  0  0  0  0
   -0.4148    2.7308    0.0000 C   0  0  0  0  0  0  0  0  0  0  0  0
   -0.7232    1.7796    0.0000 C   0  0  0  0  0  0  0  0  0  0  0  0
   -0.0536    1.0368    0.0000 C   0  0  0  0  0  0  0  0  0  0  0  0
   -0.1568   -1.9578    0.0000 C   0  0  0  0  0  0  0  0  0  0  0  0
   -0.1562   -2.9578    0.0000 R   0  0  0  0  0  0  0  0  0  0  0  0
    0.7090   -1.4576    0.0000 O   0  0  0  0  0  0  0  0  0  0  0  0
  1  2  1  0
  2  3  1  0
  2  4  1  0
  4  5  1  6
  5  6  1  0
  6  7  2  0
  7  8  1  0
  8  9  1  0
  8 10  1  0
 10 11  2  0
 11 12  1  0
 11 13  1  0
 13 14  2  0
 14 15  1  0
 15 16  2  0
  4 17  1  0
 17 18  1  0
 17 19  2  0
 16  6  1  0
 16 10  1  0
M  ISO  4   1   1   3   3   9   4  18   2
V    1 *
V    3 *
V    9 *
V   18 *
M  END
>  <symbol>  (477) 
D_Trp_4F

>  <m_Rgroups>  (477) 
[H],[OH],[H],[H],None,None

>  <m_abbr>  (477) 
D_Trp_4F

>  <m_name>  (477) 
D-4-Fluorotryptophan

>  <m_type>  (477) 
aa

>  <m_subtype>  (477) 
modified

>  <m_chem_types>  (477) 
1:backbone_n,2:backbone_c,3:backbone_n_mod,4:aromatic_nh

$$$$

     RDKit          2D

 17 17  0  0  0  0  0  0  0  0999 V2000
    0.3077   -2.5880    0.0000 R   0  0  0  0  0  0  0  0  0  0  0  0
    0.3069   -1.5880    0.0000 N   0  0  0  0  0  0  0  0  0  0  0  0
   -0.5595   -1.0888    0.0000 R   0  0  0  0  0  0  0  0  0  0  0  0
    1.1725   -1.0874    0.0000 C   0  0  0  0  0  0  0  0  0  0  0  0
    1.1717   -0.0874    0.0000 C   0  0  0  0  0  0  0  0  0  0  0  0
    0.3055    0.4120    0.0000 C   0  0  0  0  0  0  0  0  0  0  0  0
   -0.5603   -0.0886    0.0000 C   0  0  0  0  0  0  0  0  0  0  0  0
   -1.4267    0.4106    0.0000 C   0  0  0  0  0  0  0  0  0  0  0  0
   -1.4275    1.4106    0.0000 C   0  0  0  0  0  0  0  0  0  0  0  0
   -2.2939    1.9098    0.0000 O   0  0  0  0  0  0  0  0  0  0  0  0
   -3.1595    1.4092    0.0000 R   0  0  0  0  0  0  0  0  0  0  0  0
   -0.5619    1.9112    0.0000 C   0  0  0  0  0  0  0  0  0  0  0  0
   -0.5627    2.9112    0.0000 F   0  0  0  0  0  0  0  0  0  0  0  0
    0.3047    1.4120    0.0000 C   0  0  0  0  0  0  0  0  0  0  0  0
    2.0389   -1.5866    0.0000 C   0  0  0  0  0  0  0  0  0  0  0  0
    2.0397   -2.5866    0.0000 R   0  0  0  0  0  0  0  0  0  0  0  0
    2.9045   -1.0860    0.0000 O   0  0  0  0  0  0  0  0  0  0  0  0
  1  2  1  0
  2  3  1  0
  2  4  1  0
  4  5  1  6
  5  6  1  0
  6  7  1  0
  7  8  2  0
  8  9  1  0
  9 10  1  0
 10 11  1  0
  9 12  2  0
 12 13  1  0
 12 14  1  0
  4 15  1  0
 15 16  1  0
 15 17  2  0
 14  6  2  0
M  ISO  4   1   1   3   3  11   4  16   2
V    1 *
V    3 *
V   11 *
V   16 *
M  END
>  <symbol>  (478) 
D_Tyr_3F

>  <m_Rgroups>  (478) 
[H],[OH],[H],[H],None,None

>  <m_abbr>  (478) 
D_Tyr_3F

>  <m_name>  (478) 
D-3-Fluorotyrosine

>  <m_type>  (478) 
aa

>  <m_subtype>  (478) 
modified

>  <m_chem_types>  (478) 
1:backbone_n,2:backbone_c,3:backbone_n_mod,4:hydroxyl_phenolic

$$$$

     RDKit          2D

 17 17  0  0  0  0  0  0  0  0999 V2000
    0.3077   -2.5880    0.0000 R   0  0  0  0  0  0  0  0  0  0  0  0
    0.3069   -1.5880    0.0000 N   0  0  0  0  0  0  0  0  0  0  0  0
   -0.5595   -1.0888    0.0000 R   0  0  0  0  0  0  0  0  0  0  0  0
    1.1725   -1.0874    0.0000 C   0  0  0  0  0  0  0  0  0  0  0  0
    1.1717   -0.0874    0.0000 C   0  0  0  0  0  0  0  0  0  0  0  0
    0.3055    0.4120    0.0000 C   0  0  0  0  0  0  0  0  0  0  0  0
   -0.5603   -0.0886    0.0000 C   0  0  0  0  0  0  0  0  0  0  0  0
   -1.4267    0.4106    0.0000 C   0  0  0  0  0  0  0  0  0  0  0  0
   -1.4275    1.4106    0.0000 C   0  0  0  0  0  0  0  0  0  0  0  0
   -2.2939    1.9098    0.0000 O   0  0  0  0  0  0  0  0  0  0  0  0
   -3.1595    1.4092    0.0000 R   0  0  0  0  0  0  0  0  0  0  0  0
   -0.5619    1.9112    0.0000 C   0  0  0  0  0  0  0  0  0  0  0  0
   -0.5627    2.9112    0.0000 Cl  0  0  0  0  0  0  0  0  0  0  0  0
    0.3047    1.4120    0.0000 C   0  0  0  0  0  0  0  0  0  0  0  0
    2.0389   -1.5866    0.0000 C   0  0  0  0  0  0  0  0  0  0  0  0
    2.0397   -2.5866    0.0000 R   0  0  0  0  0  0  0  0  0  0  0  0
    2.9045   -1.0860    0.0000 O   0  0  0  0  0  0  0  0  0  0  0  0
  1  2  1  0
  2  3  1  0
  2  4  1  0
  4  5  1  6
  5  6  1  0
  6  7  1  0
  7  8  2  0
  8  9  1  0
  9 10  1  0
 10 11  1  0
  9 12  2  0
 12 13  1  0
 12 14  1  0
  4 15  1  0
 15 16  1  0
 15 17  2  0
 14  6  2  0
M  ISO  4   1   1   3   3  11   4  16   2
V    1 *
V    3 *
V   11 *
V   16 *
M  END
>  <symbol>  (479) 
D_Tyr_3Cl

>  <m_Rgroups>  (479) 
[H],[OH],[H],[H],None,None

>  <m_abbr>  (479) 
D_Tyr_3Cl

>  <m_name>  (479) 
D-3-Chlorotyrosine

>  <m_type>  (479) 
aa

>  <m_subtype>  (479) 
modified

>  <m_chem_types>  (479) 
1:backbone_n,2:backbone_c,3:backbone_n_mod,4:hydroxyl_phenolic

$$$$

     RDKit          2D

 17 17  0  0  0  0  0  0  0  0999 V2000
    0.3077   -2.5880    0.0000 R   0  0  0  0  0  0  0  0  0  0  0  0
    0.3069   -1.5880    0.0000 N   0  0  0  0  0  0  0  0  0  0  0  0
   -0.5595   -1.0888    0.0000 R   0  0  0  0  0  0  0  0  0  0  0  0
    1.1725   -1.0874    0.0000 C   0  0  0  0  0  0  0  0  0  0  0  0
    1.1717   -0.0874    0.0000 C   0  0  0  0  0  0  0  0  0  0  0  0
    0.3055    0.4120    0.0000 C   0  0  0  0  0  0  0  0  0  0  0  0
   -0.5603   -0.0886    0.0000 C   0  0  0  0  0  0  0  0  0  0  0  0
   -1.4267    0.4106    0.0000 C   0  0  0  0  0  0  0  0  0  0  0  0
   -1.4275    1.4106    0.0000 C   0  0  0  0  0  0  0  0  0  0  0  0
   -2.2939    1.9098    0.0000 O   0  0  0  0  0  0  0  0  0  0  0  0
   -3.1595    1.4092    0.0000 R   0  0  0  0  0  0  0  0  0  0  0  0
   -0.5619    1.9112    0.0000 C   0  0  0  0  0  0  0  0  0  0  0  0
   -0.5627    2.9112    0.0000 Br  0  0  0  0  0  0  0  0  0  0  0  0
    0.3047    1.4120    0.0000 C   0  0  0  0  0  0  0  0  0  0  0  0
    2.0389   -1.5866    0.0000 C   0  0  0  0  0  0  0  0  0  0  0  0
    2.0397   -2.5866    0.0000 R   0  0  0  0  0  0  0  0  0  0  0  0
    2.9045   -1.0860    0.0000 O   0  0  0  0  0  0  0  0  0  0  0  0
  1  2  1  0
  2  3  1  0
  2  4  1  0
  4  5  1  6
  5  6  1  0
  6  7  1  0
  7  8  2  0
  8  9  1  0
  9 10  1  0
 10 11  1  0
  9 12  2  0
 12 13  1  0
 12 14  1  0
  4 15  1  0
 15 16  1  0
 15 17  2  0
 14  6  2  0
M  ISO  4   1   1   3   3  11   4  16   2
V    1 *
V    3 *
V   11 *
V   16 *
M  END
>  <symbol>  (480) 
D_Tyr_3Br

>  <m_Rgroups>  (480) 
[H],[OH],[H],[H],None,None

>  <m_abbr>  (480) 
D_Tyr_3Br

>  <m_name>  (480) 
D-3-Bromotyrosine

>  <m_type>  (480) 
aa

>  <m_subtype>  (480) 
modified

>  <m_chem_types>  (480) 
1:backbone_n,2:backbone_c,3:backbone_n_mod,4:hydroxyl_phenolic

$$$$

     RDKit          2D

 18 18  0  0  0  0  0  0  0  0999 V2000
    0.1680   -2.7942    0.0000 R   0  0  0  0  0  0  0  0  0  0  0  0
    0.0984   -1.7802    0.0000 N   0  0  0  0  0  0  0  0  0  0  0  0
   -0.8364   -1.3606    0.0000 R   0  0  0  0  0  0  0  0  0  0  0  0
    1.0456   -1.1888    0.0000 C   0  0  0  0  0  0  0  0  0  0  0  0
    1.1430    0.0130    0.0000 C   0  0  0  0  0  0  0  0  0  0  0  0
    0.2832    0.7106    0.0000 C   0  0  0  0  0  0  0  0  0  0  0  0
    0.3212    1.7116    0.0000 C   0  0  0  0  0  0  0  0  0  0  0  0
    1.2016    2.1834    0.0000 C   0  0  0  0  0  0  0  0  0  0  0  0
   -0.5282    2.2432    0.0000 C   0  0  0  0  0  0  0  0  0  0  0  0
   -1.4118    1.7774    0.0000 C   0  0  0  0  0  0  0  0  0  0  0  0
   -2.2636    2.3032    0.0000 O   0  0  0  0  0  0  0  0  0  0  0  0
   -3.1464    1.8264    0.0000 R   0  0  0  0  0  0  0  0  0  0  0  0
   -1.4442    0.7774    0.0000 C   0  0  0  0  0  0  0  0  0  0  0  0
   -0.5966    0.2434    0.0000 C   0  0  0  0  0  0  0  0  0  0  0  0
   -0.5828   -0.7078    0.0000 C   0  0  0  0  0  0  0  0  0  0  0  0
    1.9092   -1.7822    0.0000 C   0  0  0  0  0  0  0  0  0  0  0  0
    1.8216   -2.7998    0.0000 R   0  0  0  0  0  0  0  0  0  0  0  0
    2.8176   -1.3752    0.0000 O   0  0  0  0  0  0  0  0  0  0  0  0
  1  2  1  0
  2  3  1  0
  2  4  1  0
  4  5  1  6
  5  6  1  0
  6  7  2  0
  7  8  1  0
  7  9  1  0
  9 10  2  0
 10 11  1  0
 11 12  1  0
 10 13  1  0
 13 14  2  0
 14 15  1  0
  4 16  1  0
 16 17  1  0
 16 18  2  0
 14  6  1  0
M  ISO  4   1   1   3   3  12   4  17   2
V    1 *
V    3 *
V   12 *
V   17 *
M  END
>  <symbol>  (481) 
D_Tyr_35diMe

>  <m_Rgroups>  (481) 
[H],[OH],[H],[H],None,None

>  <m_abbr>  (481) 
D_Tyr_35diMe

>  <m_name>  (481) 
D-3,5-Dimethyltyrosine

>  <m_type>  (481) 
aa

>  <m_subtype>  (481) 
modified

>  <m_chem_types>  (481) 
1:backbone_n,2:backbone_c,3:backbone_n_mod,4:hydroxyl_phenolic

$$$$

     RDKit          2D

 10 10  0  0  0  0  0  0  0  0999 V2000
   -0.7621   -1.5117    0.0000 R   0  0  0  0  0  0  0  0  0  0  0  0
   -0.6045   -0.5241    0.0000 N   0  0  0  0  0  0  0  0  0  0  0  0
   -1.3107    0.1839    0.0000 C   0  0  0  0  0  0  0  0  0  0  0  0
   -0.8557    1.0743    0.0000 C   0  0  0  0  0  0  0  0  0  0  0  0
   -1.3085    1.9659    0.0000 F   0  0  0  0  0  0  0  0  0  0  0  0
    0.1319    0.9165    0.0000 C   0  0  0  0  0  0  0  0  0  0  0  0
    0.2871   -0.0713    0.0000 C   0  0  0  0  0  0  0  0  0  0  0  0
    1.1775   -0.5263    0.0000 C   0  0  0  0  0  0  0  0  0  0  0  0
    1.2287   -1.5249    0.0000 R   0  0  0  0  0  0  0  0  0  0  0  0
    2.0167    0.0173    0.0000 O   0  0  0  0  0  0  0  0  0  0  0  0
  1  2  1  0
  2  3  1  0
  3  4  1  0
  4  5  1  6
  4  6  1  0
  6  7  1  0
  7  8  1  6
  8  9  1  0
  8 10  2  0
  7  2  1  0
M  ISO  2   1   1   9   2
V    1 *
V    9 *
M  END
>  <symbol>  (482) 
D_Pro_4F_t

>  <m_Rgroups>  (482) 
[H],[OH],None,None,None,None

>  <m_abbr>  (482) 
D_Pro_4F_t

>  <m_name>  (482) 
D-trans-4-Fluoroproline

>  <m_type>  (482) 
aa

>  <m_subtype>  (482) 
modified

>  <m_chem_types>  (482) 
1:backbone_n,2:backbone_c

$$$$

     RDKit          2D

 10 10  0  0  0  0  0  0  0  0999 V2000
   -0.7621   -1.5117    0.0000 R   0  0  0  0  0  0  0  0  0  0  0  0
   -0.6045   -0.5241    0.0000 N   0  0  0  0  0  0  0  0  0  0  0  0
   -1.3107    0.1839    0.0000 C   0  0  0  0  0  0  0  0  0  0  0  0
   -0.8557    1.0743    0.0000 C   0  0  0  0  0  0  0  0  0  0  0  0
   -1.3085    1.9659    0.0000 F   0  0  0  0  0  0  0  0  0  0  0  0
    0.1319    0.9165    0.0000 C   0  0  0  0  0  0  0  0  0  0  0  0
    0.2871   -0.0713    0.0000 C   0  0  0  0  0  0  0  0  0  0  0  0
    1.1775   -0.5263    0.0000 C   0  0  0  0  0  0  0  0  0  0  0  0
    1.2287   -1.5249    0.0000 R   0  0  0  0  0  0  0  0  0  0  0  0
    2.0167    0.0173    0.0000 O   0  0  0  0  0  0  0  0  0  0  0  0
  1  2  1  0
  2  3  1  0
  3  4  1  0
  4  5  1  1
  4  6  1  0
  6  7  1  0
  7  8  1  6
  8  9  1  0
  8 10  2  0
  7  2  1  0
M  ISO  2   1   1   9   2
V    1 *
V    9 *
M  END
>  <symbol>  (483) 
D_Pro_4F_c

>  <m_Rgroups>  (483) 
[H],[OH],None,None,None,None

>  <m_abbr>  (483) 
D_Pro_4F_c

>  <m_name>  (483) 
D-cis-4-Fluoroproline

>  <m_type>  (483) 
aa

>  <m_subtype>  (483) 
modified

>  <m_chem_types>  (483) 
1:backbone_n,2:backbone_c

$$$$

     RDKit          2D

 13 14  0  0  0  0  0  0  0  0999 V2000
   -0.1680    1.7363    0.0000 R   0  0  0  0  0  0  0  0  0  0  0  0
   -0.0136    0.7483    0.0000 N   0  0  0  0  0  0  0  0  0  0  0  0
   -0.7220    0.0427    0.0000 C   0  0  0  0  0  0  0  0  0  0  0  0
   -1.7206    0.0971    0.0000 C   0  0  0  0  0  0  0  0  0  0  0  0
   -2.2670   -0.7405    0.0000 C   0  0  0  0  0  0  0  0  0  0  0  0
   -1.8148   -1.6323    0.0000 C   0  0  0  0  0  0  0  0  0  0  0  0
   -0.8162   -1.6867    0.0000 C   0  0  0  0  0  0  0  0  0  0  0  0
   -0.2700   -0.8493    0.0000 C   0  0  0  0  0  0  0  0  0  0  0  0
    0.7180   -0.6947    0.0000 C   0  0  0  0  0  0  0  0  0  0  0  0
    0.8766    0.2925    0.0000 C   0  0  0  0  0  0  0  0  0  0  0  0
    1.7684    0.7447    0.0000 C   0  0  0  0  0  0  0  0  0  0  0  0
    2.6060    0.1985    0.0000 R   0  0  0  0  0  0  0  0  0  0  0  0
    1.8228    1.7433    0.0000 O   0  0  0  0  0  0  0  0  0  0  0  0
  1  2  1  0
  2  3  1  0
  3  4  2  0
  4  5  1  0
  5  6  2  0
  6  7  1  0
  7  8  2  0
  8  9  1  0
  9 10  1  0
 10 11  1  1
 11 12  1  0
 11 13  2  0
 10  2  1  0
  8  3  1  0
M  ISO  2   1   1  12   2
V    1 *
V   12 *
M  END
>  <symbol>  (484) 
D_Ind

>  <m_Rgroups>  (484) 
[H],[OH],None,None,None,None

>  <m_abbr>  (484) 
D_Ind

>  <m_name>  (484) 
D-Indoline-2-carboxylic acid

>  <m_type>  (484) 
aa

>  <m_subtype>  (484) 
modified

>  <m_chem_types>  (484) 
1:backbone_n,2:backbone_c

$$$$

     RDKit          2D

 13 12  0  0  0  0  0  0  0  0999 V2000
   -1.2610   -2.3486    0.0000 R   0  0  0  0  0  0  0  0  0  0  0  0
   -1.2630   -1.3486    0.0000 N   0  0  0  0  0  0  0  0  0  0  0  0
   -2.1302   -0.8504    0.0000 R   0  0  0  0  0  0  0  0  0  0  0  0
   -0.3980   -0.8470    0.0000 C   0  0  0  0  0  0  0  0  0  0  0  0
   -0.4000    0.1530    0.0000 C   0  0  0  0  0  0  0  0  0  0  0  0
    0.4650    0.6548    0.0000 C   0  0  0  0  0  0  0  0  0  0  0  0
    0.4630    1.6548    0.0000 C   0  0  0  0  0  0  0  0  0  0  0  0
   -0.4042    2.1530    0.0000 O   0  0  0  0  0  0  0  0  0  0  0  0
    1.3280    2.1564    0.0000 O   0  0  0  0  0  0  0  0  0  0  0  0
    1.3258    3.1564    0.0000 C   0  0  0  0  0  0  0  0  0  0  0  0
    0.4690   -1.3452    0.0000 C   0  0  0  0  0  0  0  0  0  0  0  0
    1.3340   -0.8434    0.0000 R   0  0  0  0  0  0  0  0  0  0  0  0
    0.4710   -2.3452    0.0000 O   0  0  0  0  0  0  0  0  0  0  0  0
  1  2  1  0
  2  3  1  0
  2  4  1  0
  4  5  1  6
  5  6  1  0
  6  7  1  0
  7  8  2  0
  7  9  1  0
  9 10  1  0
  4 11  1  0
 11 12  1  0
 11 13  2  0
M  ISO  3   1   1   3   3  12   2
V    1 *
V    3 *
V   12 *
M  END
>  <symbol>  (485) 
D_Glu_OMe

>  <m_Rgroups>  (485) 
[H],[OH],[H],None,None,None

>  <m_abbr>  (485) 
D_Glu_OMe

>  <m_name>  (485) 
D-Glu gamma-methyl ester

>  <m_type>  (485) 
aa

>  <m_subtype>  (485) 
modified

>  <m_chem_types>  (485) 
1:backbone_n,2:backbone_c,3:backbone_n_mod

$$$$

     RDKit          2D

 16 15  0  0  0  0  0  0  0  0999 V2000
   -1.4698   -3.0257    0.0000 R   0  0  0  0  0  0  0  0  0  0  0  0
   -1.4718   -2.0259    0.0000 N   0  0  0  0  0  0  0  0  0  0  0  0
   -2.3388   -1.5275    0.0000 R   0  0  0  0  0  0  0  0  0  0  0  0
   -0.6068   -1.5241    0.0000 C   0  0  0  0  0  0  0  0  0  0  0  0
   -0.6088   -0.5241    0.0000 C   0  0  0  0  0  0  0  0  0  0  0  0
    0.2562   -0.0225    0.0000 C   0  0  0  0  0  0  0  0  0  0  0  0
    0.2542    0.9775    0.0000 C   0  0  0  0  0  0  0  0  0  0  0  0
   -0.6128    1.4759    0.0000 O   0  0  0  0  0  0  0  0  0  0  0  0
    1.1192    1.4793    0.0000 O   0  0  0  0  0  0  0  0  0  0  0  0
    1.1172    2.4793    0.0000 C   0  0  0  0  0  0  0  0  0  0  0  0
    0.1172    2.4773    0.0000 C   0  0  0  0  0  0  0  0  0  0  0  0
    0.6154    3.3443    0.0000 C   0  0  0  0  0  0  0  0  0  0  0  0
    1.9822    2.9809    0.0000 C   0  0  0  0  0  0  0  0  0  0  0  0
    0.2602   -2.0223    0.0000 C   0  0  0  0  0  0  0  0  0  0  0  0
    1.1252   -1.5207    0.0000 R   0  0  0  0  0  0  0  0  0  0  0  0
    0.2622   -3.0223    0.0000 O   0  0  0  0  0  0  0  0  0  0  0  0
  1  2  1  0
  2  3  1  0
  2  4  1  0
  4  5  1  6
  5  6  1  0
  6  7  1  0
  7  8  2  0
  7  9  1  0
  9 10  1  0
 10 11  1  0
 10 12  1  0
 10 13  1  0
  4 14  1  0
 14 15  1  0
 14 16  2  0
M  ISO  3   1   1   3   3  15   2
V    1 *
V    3 *
V   15 *
M  END
>  <symbol>  (486) 
D_Glu_OtBu

>  <m_Rgroups>  (486) 
[H],[OH],[H],None,None,None

>  <m_abbr>  (486) 
D_Glu_OtBu

>  <m_name>  (486) 
D-Glu gamma-tert-butyl ester

>  <m_type>  (486) 
aa

>  <m_subtype>  (486) 
modified

>  <m_chem_types>  (486) 
1:backbone_n,2:backbone_c,3:backbone_n_mod

$$$$

     RDKit          2D

 19 19  0  0  0  0  0  0  0  0999 V2000
   -2.2259   -3.6622    0.0000 R   0  0  0  0  0  0  0  0  0  0  0  0
   -2.2281   -2.6624    0.0000 N   0  0  0  0  0  0  0  0  0  0  0  0
   -3.0951   -2.1640    0.0000 R   0  0  0  0  0  0  0  0  0  0  0  0
   -1.3631   -2.1606    0.0000 C   0  0  0  0  0  0  0  0  0  0  0  0
   -1.3651   -1.1606    0.0000 C   0  0  0  0  0  0  0  0  0  0  0  0
   -0.5001   -0.6588    0.0000 C   0  0  0  0  0  0  0  0  0  0  0  0
   -0.5021    0.3410    0.0000 C   0  0  0  0  0  0  0  0  0  0  0  0
   -1.3691    0.8394    0.0000 O   0  0  0  0  0  0  0  0  0  0  0  0
    0.3629    0.8428    0.0000 O   0  0  0  0  0  0  0  0  0  0  0  0
    0.3609    1.8428    0.0000 C   0  0  0  0  0  0  0  0  0  0  0  0
    1.2259    2.3444    0.0000 C   0  0  0  0  0  0  0  0  0  0  0  0
    1.2241    3.3444    0.0000 C   0  0  0  0  0  0  0  0  0  0  0  0
    2.0889    3.8462    0.0000 C   0  0  0  0  0  0  0  0  0  0  0  0
    2.9561    3.3480    0.0000 C   0  0  0  0  0  0  0  0  0  0  0  0
    2.9579    2.3480    0.0000 C   0  0  0  0  0  0  0  0  0  0  0  0
    2.0929    1.8462    0.0000 C   0  0  0  0  0  0  0  0  0  0  0  0
   -0.4959   -2.6588    0.0000 C   0  0  0  0  0  0  0  0  0  0  0  0
    0.3691   -2.1572    0.0000 R   0  0  0  0  0  0  0  0  0  0  0  0
   -0.4939   -3.6588    0.0000 O   0  0  0  0  0  0  0  0  0  0  0  0
  1  2  1  0
  2  3  1  0
  2  4  1  0
  4  5  1  6
  5  6  1  0
  6  7  1  0
  7  8  2  0
  7  9  1  0
  9 10  1  0
 10 11  1  0
 11 12  2  0
 12 13  1  0
 13 14  2  0
 14 15  1  0
 15 16  2  0
  4 17  1  0
 17 18  1  0
 17 19  2  0
 16 11  1  0
M  ISO  3   1   1   3   3  18   2
V    1 *
V    3 *
V   18 *
M  END
>  <symbol>  (487) 
D_Glu_OBn

>  <m_Rgroups>  (487) 
[H],[OH],[H],None,None,None

>  <m_abbr>  (487) 
D_Glu_OBn

>  <m_name>  (487) 
D-Glu gamma-benzyl ester

>  <m_type>  (487) 
aa

>  <m_subtype>  (487) 
modified

>  <m_chem_types>  (487) 
1:backbone_n,2:backbone_c,3:backbone_n_mod

$$$$

     RDKit          2D

 15 14  0  0  0  0  0  0  0  0999 V2000
   -1.6539    2.4456    0.0000 R   0  0  0  0  0  0  0  0  0  0  0  0
   -1.6559    1.4456    0.0000 N   0  0  0  0  0  0  0  0  0  0  0  0
   -2.5229    0.9472    0.0000 R   0  0  0  0  0  0  0  0  0  0  0  0
   -0.7909    0.9438    0.0000 C   0  0  0  0  0  0  0  0  0  0  0  0
   -0.7929   -0.0562    0.0000 C   0  0  0  0  0  0  0  0  0  0  0  0
    0.0721   -0.5578    0.0000 C   0  0  0  0  0  0  0  0  0  0  0  0
    0.9391   -0.0596    0.0000 O   0  0  0  0  0  0  0  0  0  0  0  0
    0.0701   -1.5578    0.0000 O   0  0  0  0  0  0  0  0  0  0  0  0
    0.9351   -2.0596    0.0000 C   0  0  0  0  0  0  0  0  0  0  0  0
    1.4369   -1.1946    0.0000 C   0  0  0  0  0  0  0  0  0  0  0  0
    1.9351   -2.0616    0.0000 C   0  0  0  0  0  0  0  0  0  0  0  0
    0.9331   -3.0596    0.0000 C   0  0  0  0  0  0  0  0  0  0  0  0
    0.0761    1.4420    0.0000 C   0  0  0  0  0  0  0  0  0  0  0  0
    0.9411    0.9404    0.0000 R   0  0  0  0  0  0  0  0  0  0  0  0
    0.0781    2.4420    0.0000 O   0  0  0  0  0  0  0  0  0  0  0  0
  1  2  1  0
  2  3  1  0
  2  4  1  0
  4  5  1  1
  5  6  1  0
  6  7  2  0
  6  8  1  0
  8  9  1  0
  9 10  1  0
  9 11  1  0
  9 12  1  0
  4 13  1  0
 13 14  1  0
 13 15  2  0
M  ISO  3   1   1   3   3  14   2
V    1 *
V    3 *
V   14 *
M  END
>  <symbol>  (488) 
D_Asp_OtBu

>  <m_Rgroups>  (488) 
[H],[OH],[H],None,None,None

>  <m_abbr>  (488) 
D_Asp_OtBu

>  <m_name>  (488) 
D-Asp beta-tert-butyl ester

>  <m_type>  (488) 
aa

>  <m_subtype>  (488) 
modified

>  <m_chem_types>  (488) 
1:backbone_n,2:backbone_c,3:backbone_n_mod

$$$$

     RDKit          2D

 18 18  0  0  0  0  0  0  0  0999 V2000
   -1.7251    3.4479    0.0000 R   0  0  0  0  0  0  0  0  0  0  0  0
   -1.7271    2.4479    0.0000 N   0  0  0  0  0  0  0  0  0  0  0  0
   -2.5943    1.9495    0.0000 R   0  0  0  0  0  0  0  0  0  0  0  0
   -0.8621    1.9461    0.0000 C   0  0  0  0  0  0  0  0  0  0  0  0
   -0.8641    0.9461    0.0000 C   0  0  0  0  0  0  0  0  0  0  0  0
    0.0009    0.4445    0.0000 C   0  0  0  0  0  0  0  0  0  0  0  0
    0.8679    0.9427    0.0000 O   0  0  0  0  0  0  0  0  0  0  0  0
   -0.0011   -0.5555    0.0000 O   0  0  0  0  0  0  0  0  0  0  0  0
    0.8639   -1.0573    0.0000 C   0  0  0  0  0  0  0  0  0  0  0  0
    0.8617   -2.0571    0.0000 C   0  0  0  0  0  0  0  0  0  0  0  0
   -0.0053   -2.5555    0.0000 C   0  0  0  0  0  0  0  0  0  0  0  0
   -0.0071   -3.5555    0.0000 C   0  0  0  0  0  0  0  0  0  0  0  0
    0.8577   -4.0573    0.0000 C   0  0  0  0  0  0  0  0  0  0  0  0
    1.7249   -3.5589    0.0000 C   0  0  0  0  0  0  0  0  0  0  0  0
    1.7267   -2.5589    0.0000 C   0  0  0  0  0  0  0  0  0  0  0  0
    0.0049    2.4443    0.0000 C   0  0  0  0  0  0  0  0  0  0  0  0
    0.8699    1.9427    0.0000 R   0  0  0  0  0  0  0  0  0  0  0  0
    0.0069    3.4443    0.0000 O   0  0  0  0  0  0  0  0  0  0  0  0
  1  2  1  0
  2  3  1  0
  2  4  1  0
  4  5  1  1
  5  6  1  0
  6  7  2  0
  6  8  1  0
  8  9  1  0
  9 10  1  0
 10 11  2  0
 11 12  1  0
 12 13  2  0
 13 14  1  0
 14 15  2  0
  4 16  1  0
 16 17  1  0
 16 18  2  0
 15 10  1  0
M  ISO  3   1   1   3   3  17   2
V    1 *
V    3 *
V   17 *
M  END
>  <symbol>  (489) 
D_Asp_OBn

>  <m_Rgroups>  (489) 
[H],[OH],[H],None,None,None

>  <m_abbr>  (489) 
D_Asp_OBn

>  <m_name>  (489) 
D-Asp beta-benzyl ester

>  <m_type>  (489) 
aa

>  <m_subtype>  (489) 
modified

>  <m_chem_types>  (489) 
1:backbone_n,2:backbone_c,3:backbone_n_mod

$$$$

     RDKit          2D

 20 21  0  0  0  0  0  0  0  0999 V2000
    0.2772   -3.1260    0.0000 R   0  0  0  0  0  0  0  0  0  0  0  0
    0.2794   -2.1260    0.0000 N   0  0  0  0  0  0  0  0  0  0  0  0
   -0.5856   -1.6244    0.0000 R   0  0  0  0  0  0  0  0  0  0  0  0
    1.1462   -1.6279    0.0000 C   0  0  0  0  0  0  0  0  0  0  0  0
    1.1484   -0.6279    0.0000 C   0  0  0  0  0  0  0  0  0  0  0  0
    0.2836   -0.1262    0.0000 C   0  0  0  0  0  0  0  0  0  0  0  0
   -0.6310   -0.5307    0.0000 C   0  0  0  0  0  0  0  0  0  0  0  0
   -1.2986    0.2138    0.0000 N   0  0  0  0  0  0  0  0  0  0  0  0
   -2.2932    0.1114    0.0000 R   0  0  0  0  0  0  0  0  0  0  0  0
   -0.7966    1.0788    0.0000 C   0  0  0  0  0  0  0  0  0  0  0  0
   -1.1036    2.0304    0.0000 C   0  0  0  0  0  0  0  0  0  0  0  0
   -2.0812    2.2404    0.0000 O   0  0  0  0  0  0  0  0  0  0  0  0
   -2.3882    3.1921    0.0000 C   0  0  0  0  0  0  0  0  0  0  0  0
   -0.4328    2.7721    0.0000 C   0  0  0  0  0  0  0  0  0  0  0  0
    0.5448    2.5621    0.0000 C   0  0  0  0  0  0  0  0  0  0  0  0
    0.8518    1.6104    0.0000 C   0  0  0  0  0  0  0  0  0  0  0  0
    0.1810    0.8688    0.0000 C   0  0  0  0  0  0  0  0  0  0  0  0
    2.0112   -2.1297    0.0000 C   0  0  0  0  0  0  0  0  0  0  0  0
    2.0090   -3.1299    0.0000 R   0  0  0  0  0  0  0  0  0  0  0  0
    2.8784   -1.6315    0.0000 O   0  0  0  0  0  0  0  0  0  0  0  0
  1  2  1  0
  2  3  1  0
  2  4  1  0
  4  5  1  1
  5  6  1  0
  6  7  2  0
  7  8  1  0
  8  9  1  0
  8 10  1  0
 10 11  2  0
 11 12  1  0
 12 13  1  0
 11 14  1  0
 14 15  2  0
 15 16  1  0
 16 17  2  0
  4 18  1  0
 18 19  1  0
 18 20  2  0
 17  6  1  0
 17 10  1  0
M  ISO  4   1   1   3   3   9   4  19   2
V    1 *
V    3 *
V    9 *
V   19 *
M  END
>  <symbol>  (490) 
Trp_4OMe

>  <m_Rgroups>  (490) 
[H],[OH],[H],[H],None,None

>  <m_abbr>  (490) 
Trp_4OMe

>  <m_name>  (490) 
L-4-Methoxytryptophan

>  <m_type>  (490) 
aa

>  <m_subtype>  (490) 
modified

>  <m_chem_types>  (490) 
1:backbone_n,2:backbone_c,3:backbone_n_mod,4:aromatic_nh

$$$$

     RDKit          2D

 21 22  0  0  0  0  0  0  0  0999 V2000
    0.1902   -3.4442    0.0000 R   0  0  0  0  0  0  0  0  0  0  0  0
    0.1906   -2.4444    0.0000 N   0  0  0  0  0  0  0  0  0  0  0  0
   -0.6750   -1.9442    0.0000 R   0  0  0  0  0  0  0  0  0  0  0  0
    1.0568   -1.9448    0.0000 C   0  0  0  0  0  0  0  0  0  0  0  0
    1.0574   -0.9448    0.0000 C   0  0  0  0  0  0  0  0  0  0  0  0
    0.1918   -0.4444    0.0000 C   0  0  0  0  0  0  0  0  0  0  0  0
   -0.7220   -0.8504    0.0000 C   0  0  0  0  0  0  0  0  0  0  0  0
   -1.3910   -0.1070    0.0000 N   0  0  0  0  0  0  0  0  0  0  0  0
   -2.3854   -0.2110    0.0000 R   0  0  0  0  0  0  0  0  0  0  0  0
   -0.8904    0.7588    0.0000 C   0  0  0  0  0  0  0  0  0  0  0  0
   -1.1988    1.7100    0.0000 C   0  0  0  0  0  0  0  0  0  0  0  0
   -0.5294    2.4528    0.0000 C   0  0  0  0  0  0  0  0  0  0  0  0
   -0.8378    3.4038    0.0000 N   0  0  0  0  0  0  0  0  0  0  0  0
   -0.1682    4.1466    0.0000 O   0  0  0  0  0  0  0  0  0  0  0  0
   -1.8158    3.6124    0.0000 O   0  0  0  0  0  0  0  0  0  0  0  0
    0.4488    2.2442    0.0000 C   0  0  0  0  0  0  0  0  0  0  0  0
    0.7572    1.2930    0.0000 C   0  0  0  0  0  0  0  0  0  0  0  0
    0.0876    0.5502    0.0000 C   0  0  0  0  0  0  0  0  0  0  0  0
    1.9226   -2.4452    0.0000 C   0  0  0  0  0  0  0  0  0  0  0  0
    1.9220   -3.4454    0.0000 R   0  0  0  0  0  0  0  0  0  0  0  0
    2.7890   -1.9456    0.0000 O   0  0  0  0  0  0  0  0  0  0  0  0
  1  2  1  0
  2  3  1  0
  2  4  1  0
  4  5  1  1
  5  6  1  0
  6  7  2  0
  7  8  1  0
  8  9  1  0
  8 10  1  0
 10 11  1  0
 11 12  2  0
 12 13  1  0
 13 14  2  0
 13 15  1  0
 12 16  1  0
 16 17  2  0
 17 18  1  0
  4 19  1  0
 19 20  1  0
 19 21  2  0
 18  6  1  0
 18 10  2  0
M  CHG  2  13   1  15  -1
M  ISO  4   1   1   3   3   9   4  20   2
V    1 *
V    3 *
V    9 *
V   20 *
M  END
>  <symbol>  (491) 
Trp_5NO2

>  <m_Rgroups>  (491) 
[H],[OH],[H],[H],None,None

>  <m_abbr>  (491) 
Trp_5NO2

>  <m_name>  (491) 
L-5-Nitrotryptophan

>  <m_type>  (491) 
aa

>  <m_subtype>  (491) 
modified

>  <m_chem_types>  (491) 
1:backbone_n,2:backbone_c,3:backbone_n_mod,4:aromatic_nh

$$$$

     RDKit          2D

 19 20  0  0  0  0  0  0  0  0999 V2000
   -1.7099   -3.0176    0.0000 R   0  0  0  0  0  0  0  0  0  0  0  0
   -1.7119   -2.0176    0.0000 N   0  0  0  0  0  0  0  0  0  0  0  0
   -2.5791   -1.5194    0.0000 R   0  0  0  0  0  0  0  0  0  0  0  0
   -0.8471   -1.5158    0.0000 C   0  0  0  0  0  0  0  0  0  0  0  0
   -0.8491   -0.5158    0.0000 C   0  0  0  0  0  0  0  0  0  0  0  0
    0.0157   -0.0140    0.0000 C   0  0  0  0  0  0  0  0  0  0  0  0
    0.9301   -0.4186    0.0000 C   0  0  0  0  0  0  0  0  0  0  0  0
    1.5979    0.3258    0.0000 N   0  0  0  0  0  0  0  0  0  0  0  0
    2.5923    0.2236    0.0000 R   0  0  0  0  0  0  0  0  0  0  0  0
    1.0959    1.1908    0.0000 C   0  0  0  0  0  0  0  0  0  0  0  0
    1.4027    2.1424    0.0000 C   0  0  0  0  0  0  0  0  0  0  0  0
    0.7321    2.8842    0.0000 C   0  0  0  0  0  0  0  0  0  0  0  0
   -0.2457    2.6742    0.0000 C   0  0  0  0  0  0  0  0  0  0  0  0
   -0.9163    3.4158    0.0000 Cl  0  0  0  0  0  0  0  0  0  0  0  0
   -0.5525    1.7224    0.0000 C   0  0  0  0  0  0  0  0  0  0  0  0
    0.1181    0.9808    0.0000 C   0  0  0  0  0  0  0  0  0  0  0  0
    0.0199   -2.0140    0.0000 C   0  0  0  0  0  0  0  0  0  0  0  0
    0.0219   -3.0140    0.0000 R   0  0  0  0  0  0  0  0  0  0  0  0
    0.8849   -1.5124    0.0000 O   0  0  0  0  0  0  0  0  0  0  0  0
  1  2  1  0
  2  3  1  0
  2  4  1  0
  4  5  1  1
  5  6  1  0
  6  7  2  0
  7  8  1  0
  8  9  1  0
  8 10  1  0
 10 11  1  0
 11 12  2  0
 12 13  1  0
 13 14  1  0
 13 15  2  0
 15 16  1  0
  4 17  1  0
 17 18  1  0
 17 19  2  0
 16  6  1  0
 16 10  2  0
M  ISO  4   1   1   3   3   9   4  18   2
V    1 *
V    3 *
V    9 *
V   18 *
M  END
>  <symbol>  (492) 
Trp_6Cl

>  <m_Rgroups>  (492) 
[H],[OH],[H],[H],None,None

>  <m_abbr>  (492) 
Trp_6Cl

>  <m_name>  (492) 
L-6-Chlorotryptophan

>  <m_type>  (492) 
aa

>  <m_subtype>  (492) 
modified

>  <m_chem_types>  (492) 
1:backbone_n,2:backbone_c,3:backbone_n_mod,4:aromatic_nh

$$$$

     RDKit          2D

 19 20  0  0  0  0  0  0  0  0999 V2000
   -1.7099   -3.0176    0.0000 R   0  0  0  0  0  0  0  0  0  0  0  0
   -1.7119   -2.0176    0.0000 N   0  0  0  0  0  0  0  0  0  0  0  0
   -2.5791   -1.5194    0.0000 R   0  0  0  0  0  0  0  0  0  0  0  0
   -0.8471   -1.5158    0.0000 C   0  0  0  0  0  0  0  0  0  0  0  0
   -0.8491   -0.5158    0.0000 C   0  0  0  0  0  0  0  0  0  0  0  0
    0.0157   -0.0140    0.0000 C   0  0  0  0  0  0  0  0  0  0  0  0
    0.9301   -0.4186    0.0000 C   0  0  0  0  0  0  0  0  0  0  0  0
    1.5979    0.3258    0.0000 N   0  0  0  0  0  0  0  0  0  0  0  0
    2.5923    0.2236    0.0000 R   0  0  0  0  0  0  0  0  0  0  0  0
    1.0959    1.1908    0.0000 C   0  0  0  0  0  0  0  0  0  0  0  0
    1.4027    2.1424    0.0000 C   0  0  0  0  0  0  0  0  0  0  0  0
    0.7321    2.8842    0.0000 C   0  0  0  0  0  0  0  0  0  0  0  0
   -0.2457    2.6742    0.0000 C   0  0  0  0  0  0  0  0  0  0  0  0
   -0.9163    3.4158    0.0000 Br  0  0  0  0  0  0  0  0  0  0  0  0
   -0.5525    1.7224    0.0000 C   0  0  0  0  0  0  0  0  0  0  0  0
    0.1181    0.9808    0.0000 C   0  0  0  0  0  0  0  0  0  0  0  0
    0.0199   -2.0140    0.0000 C   0  0  0  0  0  0  0  0  0  0  0  0
    0.0219   -3.0140    0.0000 R   0  0  0  0  0  0  0  0  0  0  0  0
    0.8849   -1.5124    0.0000 O   0  0  0  0  0  0  0  0  0  0  0  0
  1  2  1  0
  2  3  1  0
  2  4  1  0
  4  5  1  1
  5  6  1  0
  6  7  2  0
  7  8  1  0
  8  9  1  0
  8 10  1  0
 10 11  1  0
 11 12  2  0
 12 13  1  0
 13 14  1  0
 13 15  2  0
 15 16  1  0
  4 17  1  0
 17 18  1  0
 17 19  2  0
 16  6  1  0
 16 10  2  0
M  ISO  4   1   1   3   3   9   4  18   2
V    1 *
V    3 *
V    9 *
V   18 *
M  END
>  <symbol>  (493) 
Trp_6Br

>  <m_Rgroups>  (493) 
[H],[OH],[H],[H],None,None

>  <m_abbr>  (493) 
Trp_6Br

>  <m_name>  (493) 
L-6-Bromotryptophan

>  <m_type>  (493) 
aa

>  <m_subtype>  (493) 
modified

>  <m_chem_types>  (493) 
1:backbone_n,2:backbone_c,3:backbone_n_mod,4:aromatic_nh

$$$$

     RDKit          2D

 19 20  0  0  0  0  0  0  0  0999 V2000
   -1.7099   -3.0176    0.0000 R   0  0  0  0  0  0  0  0  0  0  0  0
   -1.7119   -2.0176    0.0000 N   0  0  0  0  0  0  0  0  0  0  0  0
   -2.5791   -1.5194    0.0000 R   0  0  0  0  0  0  0  0  0  0  0  0
   -0.8471   -1.5158    0.0000 C   0  0  0  0  0  0  0  0  0  0  0  0
   -0.8491   -0.5158    0.0000 C   0  0  0  0  0  0  0  0  0  0  0  0
    0.0157   -0.0140    0.0000 C   0  0  0  0  0  0  0  0  0  0  0  0
    0.9301   -0.4186    0.0000 C   0  0  0  0  0  0  0  0  0  0  0  0
    1.5979    0.3258    0.0000 N   0  0  0  0  0  0  0  0  0  0  0  0
    2.5923    0.2236    0.0000 R   0  0  0  0  0  0  0  0  0  0  0  0
    1.0959    1.1908    0.0000 C   0  0  0  0  0  0  0  0  0  0  0  0
    1.4027    2.1424    0.0000 C   0  0  0  0  0  0  0  0  0  0  0  0
    0.7321    2.8842    0.0000 C   0  0  0  0  0  0  0  0  0  0  0  0
   -0.2457    2.6742    0.0000 C   0  0  0  0  0  0  0  0  0  0  0  0
   -0.9163    3.4158    0.0000 C   0  0  0  0  0  0  0  0  0  0  0  0
   -0.5525    1.7224    0.0000 C   0  0  0  0  0  0  0  0  0  0  0  0
    0.1181    0.9808    0.0000 C   0  0  0  0  0  0  0  0  0  0  0  0
    0.0199   -2.0140    0.0000 C   0  0  0  0  0  0  0  0  0  0  0  0
    0.0219   -3.0140    0.0000 R   0  0  0  0  0  0  0  0  0  0  0  0
    0.8849   -1.5124    0.0000 O   0  0  0  0  0  0  0  0  0  0  0  0
  1  2  1  0
  2  3  1  0
  2  4  1  0
  4  5  1  1
  5  6  1  0
  6  7  2  0
  7  8  1  0
  8  9  1  0
  8 10  1  0
 10 11  1  0
 11 12  2  0
 12 13  1  0
 13 14  1  0
 13 15  2  0
 15 16  1  0
  4 17  1  0
 17 18  1  0
 17 19  2  0
 16  6  1  0
 16 10  2  0
M  ISO  4   1   1   3   3   9   4  18   2
V    1 *
V    3 *
V    9 *
V   18 *
M  END
>  <symbol>  (494) 
Trp_6Me

>  <m_Rgroups>  (494) 
[H],[OH],[H],[H],None,None

>  <m_abbr>  (494) 
Trp_6Me

>  <m_name>  (494) 
L-6-Methyltryptophan

>  <m_type>  (494) 
aa

>  <m_subtype>  (494) 
modified

>  <m_chem_types>  (494) 
1:backbone_n,2:backbone_c,3:backbone_n_mod,4:aromatic_nh

$$$$

     RDKit          2D

 19 20  0  0  0  0  0  0  0  0999 V2000
   -1.7099   -3.0176    0.0000 R   0  0  0  0  0  0  0  0  0  0  0  0
   -1.7119   -2.0176    0.0000 N   0  0  0  0  0  0  0  0  0  0  0  0
   -2.5791   -1.5194    0.0000 R   0  0  0  0  0  0  0  0  0  0  0  0
   -0.8471   -1.5158    0.0000 C   0  0  0  0  0  0  0  0  0  0  0  0
   -0.8491   -0.5158    0.0000 C   0  0  0  0  0  0  0  0  0  0  0  0
    0.0157   -0.0140    0.0000 C   0  0  0  0  0  0  0  0  0  0  0  0
    0.9301   -0.4186    0.0000 C   0  0  0  0  0  0  0  0  0  0  0  0
    1.5979    0.3258    0.0000 N   0  0  0  0  0  0  0  0  0  0  0  0
    2.5923    0.2236    0.0000 R   0  0  0  0  0  0  0  0  0  0  0  0
    1.0959    1.1908    0.0000 C   0  0  0  0  0  0  0  0  0  0  0  0
    1.4027    2.1424    0.0000 C   0  0  0  0  0  0  0  0  0  0  0  0
    0.7321    2.8842    0.0000 C   0  0  0  0  0  0  0  0  0  0  0  0
   -0.2457    2.6742    0.0000 C   0  0  0  0  0  0  0  0  0  0  0  0
   -0.9163    3.4158    0.0000 F   0  0  0  0  0  0  0  0  0  0  0  0
   -0.5525    1.7224    0.0000 C   0  0  0  0  0  0  0  0  0  0  0  0
    0.1181    0.9808    0.0000 C   0  0  0  0  0  0  0  0  0  0  0  0
    0.0199   -2.0140    0.0000 C   0  0  0  0  0  0  0  0  0  0  0  0
    0.0219   -3.0140    0.0000 R   0  0  0  0  0  0  0  0  0  0  0  0
    0.8849   -1.5124    0.0000 O   0  0  0  0  0  0  0  0  0  0  0  0
  1  2  1  0
  2  3  1  0
  2  4  1  0
  4  5  1  1
  5  6  1  0
  6  7  2  0
  7  8  1  0
  8  9  1  0
  8 10  1  0
 10 11  1  0
 11 12  2  0
 12 13  1  0
 13 14  1  0
 13 15  2  0
 15 16  1  0
  4 17  1  0
 17 18  1  0
 17 19  2  0
 16  6  1  0
 16 10  2  0
M  ISO  4   1   1   3   3   9   4  18   2
V    1 *
V    3 *
V    9 *
V   18 *
M  END
>  <symbol>  (495) 
Trp_6F2

>  <m_Rgroups>  (495) 
[H],[OH],[H],[H],None,None

>  <m_abbr>  (495) 
Trp_6F2

>  <m_name>  (495) 
L-6-Fluorotryptophan (alt regio)

>  <m_type>  (495) 
aa

>  <m_subtype>  (495) 
modified

>  <m_chem_types>  (495) 
1:backbone_n,2:backbone_c,3:backbone_n_mod,4:aromatic_nh

$$$$

     RDKit          2D

 19 20  0  0  0  0  0  0  0  0999 V2000
    0.0858   -3.0358    0.0000 R   0  0  0  0  0  0  0  0  0  0  0  0
    0.0862   -2.0360    0.0000 N   0  0  0  0  0  0  0  0  0  0  0  0
   -0.7796   -1.5358    0.0000 R   0  0  0  0  0  0  0  0  0  0  0  0
    0.9524   -1.5364    0.0000 C   0  0  0  0  0  0  0  0  0  0  0  0
    0.9528   -0.5364    0.0000 C   0  0  0  0  0  0  0  0  0  0  0  0
    0.0872   -0.0360    0.0000 C   0  0  0  0  0  0  0  0  0  0  0  0
   -0.8266   -0.4420    0.0000 C   0  0  0  0  0  0  0  0  0  0  0  0
   -1.4954    0.3012    0.0000 N   0  0  0  0  0  0  0  0  0  0  0  0
   -2.4898    0.1974    0.0000 R   0  0  0  0  0  0  0  0  0  0  0  0
   -0.9948    1.1672    0.0000 C   0  0  0  0  0  0  0  0  0  0  0  0
   -1.3032    2.1184    0.0000 C   0  0  0  0  0  0  0  0  0  0  0  0
   -0.6338    2.8612    0.0000 C   0  0  0  0  0  0  0  0  0  0  0  0
   -0.9422    3.8122    0.0000 Cl  0  0  0  0  0  0  0  0  0  0  0  0
    0.3444    2.6526    0.0000 C   0  0  0  0  0  0  0  0  0  0  0  0
    0.6526    1.7014    0.0000 C   0  0  0  0  0  0  0  0  0  0  0  0
   -0.0168    0.9586    0.0000 C   0  0  0  0  0  0  0  0  0  0  0  0
    1.8180   -2.0368    0.0000 C   0  0  0  0  0  0  0  0  0  0  0  0
    1.8176   -3.0370    0.0000 R   0  0  0  0  0  0  0  0  0  0  0  0
    2.6844   -1.5372    0.0000 O   0  0  0  0  0  0  0  0  0  0  0  0
  1  2  1  0
  2  3  1  0
  2  4  1  0
  4  5  1  1
  5  6  1  0
  6  7  2  0
  7  8  1  0
  8  9  1  0
  8 10  1  0
 10 11  1  0
 11 12  2  0
 12 13  1  0
 12 14  1  0
 14 15  2  0
 15 16  1  0
  4 17  1  0
 17 18  1  0
 17 19  2  0
 16  6  1  0
 16 10  2  0
M  ISO  4   1   1   3   3   9   4  18   2
V    1 *
V    3 *
V    9 *
V   18 *
M  END
>  <symbol>  (496) 
Trp_5Cl

>  <m_Rgroups>  (496) 
[H],[OH],[H],[H],None,None

>  <m_abbr>  (496) 
Trp_5Cl

>  <m_name>  (496) 
L-5-Chlorotryptophan

>  <m_type>  (496) 
aa

>  <m_subtype>  (496) 
modified

>  <m_chem_types>  (496) 
1:backbone_n,2:backbone_c,3:backbone_n_mod,4:aromatic_nh

$$$$

     RDKit          2D

 19 20  0  0  0  0  0  0  0  0999 V2000
    0.0858   -3.0358    0.0000 R   0  0  0  0  0  0  0  0  0  0  0  0
    0.0862   -2.0360    0.0000 N   0  0  0  0  0  0  0  0  0  0  0  0
   -0.7796   -1.5358    0.0000 R   0  0  0  0  0  0  0  0  0  0  0  0
    0.9524   -1.5364    0.0000 C   0  0  0  0  0  0  0  0  0  0  0  0
    0.9528   -0.5364    0.0000 C   0  0  0  0  0  0  0  0  0  0  0  0
    0.0872   -0.0360    0.0000 C   0  0  0  0  0  0  0  0  0  0  0  0
   -0.8266   -0.4420    0.0000 C   0  0  0  0  0  0  0  0  0  0  0  0
   -1.4954    0.3012    0.0000 N   0  0  0  0  0  0  0  0  0  0  0  0
   -2.4898    0.1974    0.0000 R   0  0  0  0  0  0  0  0  0  0  0  0
   -0.9948    1.1672    0.0000 C   0  0  0  0  0  0  0  0  0  0  0  0
   -1.3032    2.1184    0.0000 C   0  0  0  0  0  0  0  0  0  0  0  0
   -0.6338    2.8612    0.0000 C   0  0  0  0  0  0  0  0  0  0  0  0
   -0.9422    3.8122    0.0000 I   0  0  0  0  0  0  0  0  0  0  0  0
    0.3444    2.6526    0.0000 C   0  0  0  0  0  0  0  0  0  0  0  0
    0.6526    1.7014    0.0000 C   0  0  0  0  0  0  0  0  0  0  0  0
   -0.0168    0.9586    0.0000 C   0  0  0  0  0  0  0  0  0  0  0  0
    1.8180   -2.0368    0.0000 C   0  0  0  0  0  0  0  0  0  0  0  0
    1.8176   -3.0370    0.0000 R   0  0  0  0  0  0  0  0  0  0  0  0
    2.6844   -1.5372    0.0000 O   0  0  0  0  0  0  0  0  0  0  0  0
  1  2  1  0
  2  3  1  0
  2  4  1  0
  4  5  1  1
  5  6  1  0
  6  7  2  0
  7  8  1  0
  8  9  1  0
  8 10  1  0
 10 11  1  0
 11 12  2  0
 12 13  1  0
 12 14  1  0
 14 15  2  0
 15 16  1  0
  4 17  1  0
 17 18  1  0
 17 19  2  0
 16  6  1  0
 16 10  2  0
M  ISO  4   1   1   3   3   9   4  18   2
V    1 *
V    3 *
V    9 *
V   18 *
M  END
>  <symbol>  (497) 
Trp_5I

>  <m_Rgroups>  (497) 
[H],[OH],[H],[H],None,None

>  <m_abbr>  (497) 
Trp_5I

>  <m_name>  (497) 
L-5-Iodotryptophan

>  <m_type>  (497) 
aa

>  <m_subtype>  (497) 
modified

>  <m_chem_types>  (497) 
1:backbone_n,2:backbone_c,3:backbone_n_mod,4:aromatic_nh

$$$$

     RDKit          2D

 21 22  0  0  0  0  0  0  0  0999 V2000
    0.4083    3.1973    0.0000 R   0  0  0  0  0  0  0  0  0  0  0  0
    0.4103    2.1975    0.0000 N   0  0  0  0  0  0  0  0  0  0  0  0
   -0.4545    1.6959    0.0000 R   0  0  0  0  0  0  0  0  0  0  0  0
    1.2773    1.6993    0.0000 C   0  0  0  0  0  0  0  0  0  0  0  0
    1.2793    0.6991    0.0000 C   0  0  0  0  0  0  0  0  0  0  0  0
    0.4145    0.1975    0.0000 C   0  0  0  0  0  0  0  0  0  0  0  0
   -0.4999    0.6019    0.0000 C   0  0  0  0  0  0  0  0  0  0  0  0
   -1.1675   -0.1423    0.0000 N   0  0  0  0  0  0  0  0  0  0  0  0
   -2.1621   -0.0401    0.0000 R   0  0  0  0  0  0  0  0  0  0  0  0
   -0.6655   -1.0073    0.0000 C   0  0  0  0  0  0  0  0  0  0  0  0
   -0.9725   -1.9591    0.0000 C   0  0  0  0  0  0  0  0  0  0  0  0
   -1.9503   -2.1691    0.0000 N   0  0  0  0  0  0  0  0  0  0  0  0
   -2.6209   -1.4273    0.0000 O   0  0  0  0  0  0  0  0  0  0  0  0
   -2.2573   -3.1207    0.0000 O   0  0  0  0  0  0  0  0  0  0  0  0
   -0.3019   -2.7007    0.0000 C   0  0  0  0  0  0  0  0  0  0  0  0
    0.6759   -2.4907    0.0000 C   0  0  0  0  0  0  0  0  0  0  0  0
    0.9827   -1.5391    0.0000 C   0  0  0  0  0  0  0  0  0  0  0  0
    0.3121   -0.7973    0.0000 C   0  0  0  0  0  0  0  0  0  0  0  0
    2.1423    2.2011    0.0000 C   0  0  0  0  0  0  0  0  0  0  0  0
    2.1401    3.2011    0.0000 R   0  0  0  0  0  0  0  0  0  0  0  0
    3.0093    1.7029    0.0000 O   0  0  0  0  0  0  0  0  0  0  0  0
  1  2  1  0
  2  3  1  0
  2  4  1  0
  4  5  1  6
  5  6  1  0
  6  7  2  0
  7  8  1  0
  8  9  1  0
  8 10  1  0
 10 11  2  0
 11 12  1  0
 12 13  2  0
 12 14  1  0
 11 15  1  0
 15 16  2  0
 16 17  1  0
 17 18  2  0
  4 19  1  0
 19 20  1  0
 19 21  2  0
 18  6  1  0
 18 10  1  0
M  CHG  2  12   1  14  -1
M  ISO  4   1   1   3   3   9   4  20   2
V    1 *
V    3 *
V    9 *
V   20 *
M  END
>  <symbol>  (498) 
Trp_4NO2

>  <m_Rgroups>  (498) 
[H],[OH],[H],[H],None,None

>  <m_abbr>  (498) 
Trp_4NO2

>  <m_name>  (498) 
L-4-Nitrotryptophan

>  <m_type>  (498) 
aa

>  <m_subtype>  (498) 
modified

>  <m_chem_types>  (498) 
1:backbone_n,2:backbone_c,3:backbone_n_mod,4:aromatic_nh

$$$$

     RDKit          2D

 19 20  0  0  0  0  0  0  0  0999 V2000
   -1.6775   -2.9176    0.0000 R   0  0  0  0  0  0  0  0  0  0  0  0
   -1.6797   -1.9174    0.0000 N   0  0  0  0  0  0  0  0  0  0  0  0
   -2.5467   -1.4194    0.0000 R   0  0  0  0  0  0  0  0  0  0  0  0
   -0.8147   -1.4156    0.0000 C   0  0  0  0  0  0  0  0  0  0  0  0
   -0.8169   -0.4156    0.0000 C   0  0  0  0  0  0  0  0  0  0  0  0
    0.0481    0.0860    0.0000 C   0  0  0  0  0  0  0  0  0  0  0  0
    0.9625   -0.3184    0.0000 C   0  0  0  0  0  0  0  0  0  0  0  0
    1.6301    0.4260    0.0000 N   0  0  0  0  0  0  0  0  0  0  0  0
    2.6247    0.3236    0.0000 R   0  0  0  0  0  0  0  0  0  0  0  0
    1.1281    1.2910    0.0000 C   0  0  0  0  0  0  0  0  0  0  0  0
    1.4351    2.2426    0.0000 C   0  0  0  0  0  0  0  0  0  0  0  0
    0.7645    2.9844    0.0000 C   0  0  0  0  0  0  0  0  0  0  0  0
   -0.2133    2.7744    0.0000 C   0  0  0  0  0  0  0  0  0  0  0  0
   -0.5201    1.8226    0.0000 C   0  0  0  0  0  0  0  0  0  0  0  0
   -1.4979    1.6126    0.0000 F   0  0  0  0  0  0  0  0  0  0  0  0
    0.1505    1.0810    0.0000 C   0  0  0  0  0  0  0  0  0  0  0  0
    0.0523   -1.9138    0.0000 C   0  0  0  0  0  0  0  0  0  0  0  0
    0.0543   -2.9138    0.0000 R   0  0  0  0  0  0  0  0  0  0  0  0
    0.9171   -1.4122    0.0000 O   0  0  0  0  0  0  0  0  0  0  0  0
  1  2  1  0
  2  3  1  0
  2  4  1  0
  4  5  1  1
  5  6  1  0
  6  7  2  0
  7  8  1  0
  8  9  1  0
  8 10  1  0
 10 11  2  0
 11 12  1  0
 12 13  2  0
 13 14  1  0
 14 15  1  0
 14 16  2  0
  4 17  1  0
 17 18  1  0
 17 19  2  0
 16  6  1  0
 16 10  1  0
M  ISO  4   1   1   3   3   9   4  18   2
V    1 *
V    3 *
V    9 *
V   18 *
M  END
>  <symbol>  (499) 
Trp_7F

>  <m_Rgroups>  (499) 
[H],[OH],[H],[H],None,None

>  <m_abbr>  (499) 
Trp_7F

>  <m_name>  (499) 
L-7-Fluorotryptophan

>  <m_type>  (499) 
aa

>  <m_subtype>  (499) 
modified

>  <m_chem_types>  (499) 
1:backbone_n,2:backbone_c,3:backbone_n_mod,4:aromatic_nh

$$$$

     RDKit          2D

 19 19  0  0  0  0  0  0  0  0999 V2000
    0.0107   -2.9474    0.0000 R   0  0  0  0  0  0  0  0  0  0  0  0
    0.0071   -1.9474    0.0000 N   0  0  0  0  0  0  0  0  0  0  0  0
   -0.8609   -1.4504    0.0000 R   0  0  0  0  0  0  0  0  0  0  0  0
    0.8713   -1.4442    0.0000 C   0  0  0  0  0  0  0  0  0  0  0  0
    0.8677   -0.4442    0.0000 C   0  0  0  0  0  0  0  0  0  0  0  0
   -0.0003    0.0526    0.0000 C   0  0  0  0  0  0  0  0  0  0  0  0
   -0.8645   -0.4504    0.0000 O   0  0  0  0  0  0  0  0  0  0  0  0
   -0.0039    1.0526    0.0000 C   0  0  0  0  0  0  0  0  0  0  0  0
    0.8603    1.5558    0.0000 C   0  0  0  0  0  0  0  0  0  0  0  0
    0.8569    2.5556    0.0000 C   0  0  0  0  0  0  0  0  0  0  0  0
   -0.0111    3.0526    0.0000 C   0  0  0  0  0  0  0  0  0  0  0  0
   -0.8751    2.5494    0.0000 C   0  0  0  0  0  0  0  0  0  0  0  0
   -0.8717    1.5494    0.0000 C   0  0  0  0  0  0  0  0  0  0  0  0
   -1.7359    1.0464    0.0000 N   0  0  0  0  0  0  0  0  0  0  0  0
   -2.6037    1.5432    0.0000 R   0  0  0  0  0  0  0  0  0  0  0  0
   -1.7323    0.0464    0.0000 R   0  0  0  0  0  0  0  0  0  0  0  0
    1.7391   -1.9412    0.0000 C   0  0  0  0  0  0  0  0  0  0  0  0
    1.7427   -2.9410    0.0000 R   0  0  0  0  0  0  0  0  0  0  0  0
    2.6033   -1.4380    0.0000 O   0  0  0  0  0  0  0  0  0  0  0  0
  1  2  1  0
  2  3  1  0
  2  4  1  0
  4  5  1  1
  5  6  1  0
  6  7  2  0
  6  8  1  0
  8  9  2  0
  9 10  1  0
 10 11  2  0
 11 12  1  0
 12 13  2  0
 13 14  1  0
 14 15  1  0
 14 16  1  0
  4 17  1  0
 17 18  1  0
 17 19  2  0
 13  8  1  0
M  ISO  5   1   1   3   3  15   4  16   5  18   2
V    1 *
V    3 *
V   15 *
V   16 *
V   18 *
M  END
>  <symbol>  (500) 
Kyn

>  <m_Rgroups>  (500) 
[H],[OH],[H],[H],[H],None

>  <m_abbr>  (500) 
Kyn

>  <m_name>  (500) 
L-Kynurenine

>  <m_type>  (500) 
aa

>  <m_subtype>  (500) 
modified

>  <m_chem_types>  (500) 
1:backbone_n,2:backbone_c,3:backbone_n_mod,4:amine_primary,5:amine_secondary

$$$$

     RDKit          2D

 15 14  0  0  0  0  0  0  0  0999 V2000
   -1.7838    2.9702    0.0000 R   0  0  0  0  0  0  0  0  0  0  0  0
   -1.7858    1.9702    0.0000 N   0  0  0  0  0  0  0  0  0  0  0  0
   -2.6528    1.4720    0.0000 R   0  0  0  0  0  0  0  0  0  0  0  0
   -0.9208    1.4684    0.0000 C   0  0  0  0  0  0  0  0  0  0  0  0
   -0.9228    0.4684    0.0000 C   0  0  0  0  0  0  0  0  0  0  0  0
   -0.0578   -0.0332    0.0000 C   0  0  0  0  0  0  0  0  0  0  0  0
   -0.0598   -1.0332    0.0000 C   0  0  0  0  0  0  0  0  0  0  0  0
    0.8052   -1.5350    0.0000 C   0  0  0  0  0  0  0  0  0  0  0  0
    0.8032   -2.5348    0.0000 C   0  0  0  0  0  0  0  0  0  0  0  0
    1.6682   -3.0366    0.0000 N   0  0  0  0  0  0  0  0  0  0  0  0
    1.6660   -4.0366    0.0000 R   0  0  0  0  0  0  0  0  0  0  0  0
    2.5352   -2.5384    0.0000 R   0  0  0  0  0  0  0  0  0  0  0  0
   -0.0538    1.9668    0.0000 C   0  0  0  0  0  0  0  0  0  0  0  0
    0.8112    1.4650    0.0000 R   0  0  0  0  0  0  0  0  0  0  0  0
   -0.0518    2.9668    0.0000 O   0  0  0  0  0  0  0  0  0  0  0  0
  1  2  1  0
  2  3  1  0
  2  4  1  0
  4  5  1  6
  5  6  1  0
  6  7  1  0
  7  8  1  0
  8  9  1  0
  9 10  1  0
 10 11  1  0
 10 12  1  0
  4 13  1  0
 13 14  1  0
 13 15  2  0
M  ISO  5   1   1   3   3  11   4  12   5  14   2
V    1 *
V    3 *
V   11 *
V   12 *
V   14 *
M  END
>  <symbol>  (501) 
hLys

>  <m_Rgroups>  (501) 
[H],[OH],[H],[H],[H],None

>  <m_abbr>  (501) 
hLys

>  <m_name>  (501) 
L-Homolysine

>  <m_type>  (501) 
aa

>  <m_subtype>  (501) 
modified

>  <m_chem_types>  (501) 
1:backbone_n,2:backbone_c,3:backbone_n_mod,4:amine_primary,5:amine_secondary

$$$$

     RDKit          2D

 12 12  0  0  0  0  0  0  0  0999 V2000
   -0.3764   -1.8674    0.0000 R   0  0  0  0  0  0  0  0  0  0  0  0
   -0.3746   -0.8672    0.0000 N   0  0  0  0  0  0  0  0  0  0  0  0
   -1.2398   -0.3658    0.0000 R   0  0  0  0  0  0  0  0  0  0  0  0
    0.4922   -0.3687    0.0000 C   0  0  0  0  0  0  0  0  0  0  0  0
    0.4940    0.6312    0.0000 C   0  0  0  0  0  0  0  0  0  0  0  0
   -0.3714    1.1329    0.0000 C   0  0  0  0  0  0  0  0  0  0  0  0
   -1.3378    0.8759    0.0000 C   0  0  0  0  0  0  0  0  0  0  0  0
   -1.5948    1.8422    0.0000 C   0  0  0  0  0  0  0  0  0  0  0  0
   -0.6284    2.0993    0.0000 C   0  0  0  0  0  0  0  0  0  0  0  0
    1.3574   -0.8703    0.0000 C   0  0  0  0  0  0  0  0  0  0  0  0
    1.3558   -1.8703    0.0000 R   0  0  0  0  0  0  0  0  0  0  0  0
    2.2242   -0.3717    0.0000 O   0  0  0  0  0  0  0  0  0  0  0  0
  1  2  1  0
  2  3  1  0
  2  4  1  0
  4  5  1  1
  5  6  1  0
  6  7  1  0
  7  8  1  0
  8  9  1  0
  4 10  1  0
 10 11  1  0
 10 12  2  0
  9  6  1  0
M  ISO  3   1   1   3   3  11   2
V    1 *
V    3 *
V   11 *
M  END
>  <symbol>  (502) 
cBuAla

>  <m_Rgroups>  (502) 
[H],[OH],[H],None,None,None

>  <m_abbr>  (502) 
cBuAla

>  <m_name>  (502) 
L-Cyclobutylalanine

>  <m_type>  (502) 
aa

>  <m_subtype>  (502) 
modified

>  <m_chem_types>  (502) 
1:backbone_n,2:backbone_c,3:backbone_n_mod

$$$$

     RDKit          2D

 13 13  0  0  0  0  0  0  0  0999 V2000
   -0.2470   -2.0100    0.0000 R   0  0  0  0  0  0  0  0  0  0  0  0
   -0.2484   -1.0100    0.0000 N   0  0  0  0  0  0  0  0  0  0  0  0
   -1.1150   -0.5110    0.0000 R   0  0  0  0  0  0  0  0  0  0  0  0
    0.6170   -0.5090    0.0000 C   0  0  0  0  0  0  0  0  0  0  0  0
    0.6158    0.4910    0.0000 C   0  0  0  0  0  0  0  0  0  0  0  0
   -0.2508    0.9898    0.0000 C   0  0  0  0  0  0  0  0  0  0  0  0
   -1.1638    0.5822    0.0000 C   0  0  0  0  0  0  0  0  0  0  0  0
   -1.8340    1.3246    0.0000 C   0  0  0  0  0  0  0  0  0  0  0  0
   -1.3348    2.1910    0.0000 C   0  0  0  0  0  0  0  0  0  0  0  0
   -0.3564    1.9846    0.0000 C   0  0  0  0  0  0  0  0  0  0  0  0
    1.4836   -1.0080    0.0000 C   0  0  0  0  0  0  0  0  0  0  0  0
    1.4848   -2.0080    0.0000 R   0  0  0  0  0  0  0  0  0  0  0  0
    2.3490   -0.5070    0.0000 O   0  0  0  0  0  0  0  0  0  0  0  0
  1  2  1  0
  2  3  1  0
  2  4  1  0
  4  5  1  1
  5  6  1  0
  6  7  1  0
  7  8  1  0
  8  9  1  0
  9 10  1  0
  4 11  1  0
 11 12  1  0
 11 13  2  0
 10  6  1  0
M  ISO  3   1   1   3   3  12   2
V    1 *
V    3 *
V   12 *
M  END
>  <symbol>  (503) 
cPenAla

>  <m_Rgroups>  (503) 
[H],[OH],[H],None,None,None

>  <m_abbr>  (503) 
cPenAla

>  <m_name>  (503) 
L-Cyclopentylalanine

>  <m_type>  (503) 
aa

>  <m_subtype>  (503) 
modified

>  <m_chem_types>  (503) 
1:backbone_n,2:backbone_c,3:backbone_n_mod

$$$$

     RDKit          2D

 13 13  0  0  0  0  0  0  0  0999 V2000
   -0.2470   -2.0100    0.0000 R   0  0  0  0  0  0  0  0  0  0  0  0
   -0.2484   -1.0100    0.0000 N   0  0  0  0  0  0  0  0  0  0  0  0
   -1.1150   -0.5110    0.0000 R   0  0  0  0  0  0  0  0  0  0  0  0
    0.6170   -0.5090    0.0000 C   0  0  0  0  0  0  0  0  0  0  0  0
    0.6158    0.4910    0.0000 C   0  0  0  0  0  0  0  0  0  0  0  0
   -0.2508    0.9898    0.0000 C   0  0  0  0  0  0  0  0  0  0  0  0
   -0.3564    1.9846    0.0000 C   0  0  0  0  0  0  0  0  0  0  0  0
   -1.3348    2.1910    0.0000 C   0  0  0  0  0  0  0  0  0  0  0  0
   -1.8340    1.3246    0.0000 C   0  0  0  0  0  0  0  0  0  0  0  0
   -1.1638    0.5822    0.0000 O   0  0  0  0  0  0  0  0  0  0  0  0
    1.4836   -1.0080    0.0000 C   0  0  0  0  0  0  0  0  0  0  0  0
    1.4848   -2.0080    0.0000 R   0  0  0  0  0  0  0  0  0  0  0  0
    2.3490   -0.5070    0.0000 O   0  0  0  0  0  0  0  0  0  0  0  0
  1  2  1  0
  2  3  1  0
  2  4  1  0
  4  5  1  1
  5  6  1  0
  6  7  2  0
  7  8  1  0
  8  9  2  0
  9 10  1  0
  4 11  1  0
 11 12  1  0
 11 13  2  0
 10  6  1  0
M  ISO  3   1   1   3   3  12   2
V    1 *
V    3 *
V   12 *
M  END
>  <symbol>  (504) 
Fur2Ala

>  <m_Rgroups>  (504) 
[H],[OH],[H],None,None,None

>  <m_abbr>  (504) 
Fur2Ala

>  <m_name>  (504) 
L-2-Furyl-alanine

>  <m_type>  (504) 
aa

>  <m_subtype>  (504) 
modified

>  <m_chem_types>  (504) 
1:backbone_n,2:backbone_c,3:backbone_n_mod

$$$$

     RDKit          2D

 13 13  0  0  0  0  0  0  0  0999 V2000
   -0.2470   -2.0100    0.0000 R   0  0  0  0  0  0  0  0  0  0  0  0
   -0.2484   -1.0100    0.0000 N   0  0  0  0  0  0  0  0  0  0  0  0
   -1.1150   -0.5110    0.0000 R   0  0  0  0  0  0  0  0  0  0  0  0
    0.6170   -0.5090    0.0000 C   0  0  0  0  0  0  0  0  0  0  0  0
    0.6158    0.4910    0.0000 C   0  0  0  0  0  0  0  0  0  0  0  0
   -0.2508    0.9898    0.0000 C   0  0  0  0  0  0  0  0  0  0  0  0
   -1.1638    0.5822    0.0000 C   0  0  0  0  0  0  0  0  0  0  0  0
   -1.8340    1.3246    0.0000 C   0  0  0  0  0  0  0  0  0  0  0  0
   -1.3348    2.1910    0.0000 O   0  0  0  0  0  0  0  0  0  0  0  0
   -0.3564    1.9846    0.0000 C   0  0  0  0  0  0  0  0  0  0  0  0
    1.4836   -1.0080    0.0000 C   0  0  0  0  0  0  0  0  0  0  0  0
    1.4848   -2.0080    0.0000 R   0  0  0  0  0  0  0  0  0  0  0  0
    2.3490   -0.5070    0.0000 O   0  0  0  0  0  0  0  0  0  0  0  0
  1  2  1  0
  2  3  1  0
  2  4  1  0
  4  5  1  1
  5  6  1  0
  6  7  1  0
  7  8  2  0
  8  9  1  0
  9 10  1  0
  4 11  1  0
 11 12  1  0
 11 13  2  0
 10  6  2  0
M  ISO  3   1   1   3   3  12   2
V    1 *
V    3 *
V   12 *
M  END
>  <symbol>  (505) 
Fur3Ala

>  <m_Rgroups>  (505) 
[H],[OH],[H],None,None,None

>  <m_abbr>  (505) 
Fur3Ala

>  <m_name>  (505) 
L-3-Furyl-alanine

>  <m_type>  (505) 
aa

>  <m_subtype>  (505) 
modified

>  <m_chem_types>  (505) 
1:backbone_n,2:backbone_c,3:backbone_n_mod

$$$$

     RDKit          2D

 20 21  0  0  0  0  0  0  0  0999 V2000
    0.9418   -3.0033    0.0000 R   0  0  0  0  0  0  0  0  0  0  0  0
    0.9454   -2.0033    0.0000 N   0  0  0  0  0  0  0  0  0  0  0  0
    0.0812   -1.5003    0.0000 R   0  0  0  0  0  0  0  0  0  0  0  0
    1.8132   -1.5065    0.0000 C   0  0  0  0  0  0  0  0  0  0  0  0
    1.8168   -0.5065    0.0000 C   0  0  0  0  0  0  0  0  0  0  0  0
    0.9526   -0.0035    0.0000 C   0  0  0  0  0  0  0  0  0  0  0  0
    0.0848   -0.5003    0.0000 C   0  0  0  0  0  0  0  0  0  0  0  0
   -0.7794    0.0029    0.0000 C   0  0  0  0  0  0  0  0  0  0  0  0
   -0.7758    1.0027    0.0000 C   0  0  0  0  0  0  0  0  0  0  0  0
   -1.6400    1.5059    0.0000 C   0  0  0  0  0  0  0  0  0  0  0  0
   -2.5078    1.0089    0.0000 C   0  0  0  0  0  0  0  0  0  0  0  0
   -3.3720    1.5121    0.0000 C   0  0  0  0  0  0  0  0  0  0  0  0
   -3.3684    2.5121    0.0000 C   0  0  0  0  0  0  0  0  0  0  0  0
   -2.5006    3.0089    0.0000 C   0  0  0  0  0  0  0  0  0  0  0  0
   -1.6364    2.5057    0.0000 C   0  0  0  0  0  0  0  0  0  0  0  0
    0.0920    1.4997    0.0000 C   0  0  0  0  0  0  0  0  0  0  0  0
    0.9562    0.9965    0.0000 C   0  0  0  0  0  0  0  0  0  0  0  0
    2.6774   -2.0095    0.0000 C   0  0  0  0  0  0  0  0  0  0  0  0
    2.6738   -3.0095    0.0000 R   0  0  0  0  0  0  0  0  0  0  0  0
    3.5452   -1.5127    0.0000 O   0  0  0  0  0  0  0  0  0  0  0  0
  1  2  1  0
  2  3  1  0
  2  4  1  0
  4  5  1  1
  5  6  1  0
  6  7  1  0
  7  8  2  0
  8  9  1  0
  9 10  1  0
 10 11  2  0
 11 12  1  0
 12 13  2  0
 13 14  1  0
 14 15  2  0
  9 16  2  0
 16 17  1  0
  4 18  1  0
 18 19  1  0
 18 20  2  0
 17  6  2  0
 15 10  1  0
M  ISO  3   1   1   3   3  19   2
V    1 *
V    3 *
V   19 *
M  END
>  <symbol>  (506) 
BiPheAla

>  <m_Rgroups>  (506) 
[H],[OH],[H],None,None,None

>  <m_abbr>  (506) 
BiPheAla

>  <m_name>  (506) 
L-4-Biphenylalanine

>  <m_type>  (506) 
aa

>  <m_subtype>  (506) 
modified

>  <m_chem_types>  (506) 
1:backbone_n,2:backbone_c,3:backbone_n_mod

$$$$

     RDKit          2D

 11 11  0  0  0  0  0  0  0  0999 V2000
   -0.5525   -1.6951    0.0000 R   0  0  0  0  0  0  0  0  0  0  0  0
   -0.3949   -0.7077    0.0000 N   0  0  0  0  0  0  0  0  0  0  0  0
   -1.1011    0.0003    0.0000 C   0  0  0  0  0  0  0  0  0  0  0  0
   -0.6459    0.8907    0.0000 C   0  0  0  0  0  0  0  0  0  0  0  0
   -1.0989    1.7823    0.0000 O   0  0  0  0  0  0  0  0  0  0  0  0
   -2.0973    1.8359    0.0000 R   0  0  0  0  0  0  0  0  0  0  0  0
    0.3415    0.7331    0.0000 C   0  0  0  0  0  0  0  0  0  0  0  0
    0.4967   -0.2547    0.0000 C   0  0  0  0  0  0  0  0  0  0  0  0
    1.3871   -0.7099    0.0000 C   0  0  0  0  0  0  0  0  0  0  0  0
    1.4385   -1.7085    0.0000 R   0  0  0  0  0  0  0  0  0  0  0  0
    2.2265   -0.1663    0.0000 O   0  0  0  0  0  0  0  0  0  0  0  0
  1  2  1  0
  2  3  1  0
  3  4  1  0
  4  5  1  1
  5  6  1  0
  4  7  1  0
  7  8  1  0
  8  9  1  1
  9 10  1  0
  9 11  2  0
  8  2  1  0
M  ISO  3   1   1   6   3  10   2
V    1 *
V    6 *
V   10 *
M  END
>  <symbol>  (507) 
Pro_3OH_t

>  <m_Rgroups>  (507) 
[H],[OH],[H],None,None,None

>  <m_abbr>  (507) 
Pro_3OH_t

>  <m_name>  (507) 
trans-3-Hydroxyproline (2S,3R)

>  <m_type>  (507) 
aa

>  <m_subtype>  (507) 
modified

>  <m_chem_types>  (507) 
1:backbone_n,2:backbone_c,3:hydroxyl

$$$$

     RDKit          2D

 11 11  0  0  0  0  0  0  0  0999 V2000
   -0.5525   -1.6951    0.0000 R   0  0  0  0  0  0  0  0  0  0  0  0
   -0.3949   -0.7077    0.0000 N   0  0  0  0  0  0  0  0  0  0  0  0
   -1.1011    0.0003    0.0000 C   0  0  0  0  0  0  0  0  0  0  0  0
   -0.6459    0.8907    0.0000 C   0  0  0  0  0  0  0  0  0  0  0  0
   -1.0989    1.7823    0.0000 O   0  0  0  0  0  0  0  0  0  0  0  0
   -2.0973    1.8359    0.0000 R   0  0  0  0  0  0  0  0  0  0  0  0
    0.3415    0.7331    0.0000 C   0  0  0  0  0  0  0  0  0  0  0  0
    0.4967   -0.2547    0.0000 C   0  0  0  0  0  0  0  0  0  0  0  0
    1.3871   -0.7099    0.0000 C   0  0  0  0  0  0  0  0  0  0  0  0
    1.4385   -1.7085    0.0000 R   0  0  0  0  0  0  0  0  0  0  0  0
    2.2265   -0.1663    0.0000 O   0  0  0  0  0  0  0  0  0  0  0  0
  1  2  1  0
  2  3  1  0
  3  4  1  0
  4  5  1  6
  5  6  1  0
  4  7  1  0
  7  8  1  0
  8  9  1  1
  9 10  1  0
  9 11  2  0
  8  2  1  0
M  ISO  3   1   1   6   3  10   2
V    1 *
V    6 *
V   10 *
M  END
>  <symbol>  (508) 
Pro_3OH_c

>  <m_Rgroups>  (508) 
[H],[OH],[H],None,None,None

>  <m_abbr>  (508) 
Pro_3OH_c

>  <m_name>  (508) 
cis-3-Hydroxyproline (2S,3S)

>  <m_type>  (508) 
aa

>  <m_subtype>  (508) 
modified

>  <m_chem_types>  (508) 
1:backbone_n,2:backbone_c,3:hydroxyl

$$$$

     RDKit          2D

 10 10  0  0  0  0  0  0  0  0999 V2000
   -0.7621   -1.5117    0.0000 R   0  0  0  0  0  0  0  0  0  0  0  0
   -0.6045   -0.5241    0.0000 N   0  0  0  0  0  0  0  0  0  0  0  0
   -1.3107    0.1839    0.0000 C   0  0  0  0  0  0  0  0  0  0  0  0
   -0.8557    1.0743    0.0000 C   0  0  0  0  0  0  0  0  0  0  0  0
   -1.3085    1.9659    0.0000 F   0  0  0  0  0  0  0  0  0  0  0  0
    0.1319    0.9165    0.0000 C   0  0  0  0  0  0  0  0  0  0  0  0
    0.2871   -0.0713    0.0000 C   0  0  0  0  0  0  0  0  0  0  0  0
    1.1775   -0.5263    0.0000 C   0  0  0  0  0  0  0  0  0  0  0  0
    1.2287   -1.5249    0.0000 R   0  0  0  0  0  0  0  0  0  0  0  0
    2.0167    0.0173    0.0000 O   0  0  0  0  0  0  0  0  0  0  0  0
  1  2  1  0
  2  3  1  0
  3  4  1  0
  4  5  1  0
  4  6  1  0
  6  7  1  0
  7  8  1  0
  8  9  1  0
  8 10  2  0
  7  2  1  0
M  ISO  2   1   1   9   2
V    1 *
V    9 *
M  END
>  <symbol>  (509) 
Pro_3F

>  <m_Rgroups>  (509) 
[H],[OH],None,None,None,None

>  <m_abbr>  (509) 
Pro_3F

>  <m_name>  (509) 
3-Fluoroproline

>  <m_type>  (509) 
aa

>  <m_subtype>  (509) 
modified

>  <m_chem_types>  (509) 
1:backbone_n,2:backbone_c

$$$$

     RDKit          2D

 30 31  0  0  0  0  0  0  0  0999 V2000
    1.9746   -6.6290    0.0000 R   0  0  0  0  0  0  0  0  0  0  0  0
    1.9766   -5.6290    0.0000 N   0  0  0  0  0  0  0  0  0  0  0  0
    1.1116   -5.1274    0.0000 R   0  0  0  0  0  0  0  0  0  0  0  0
    2.8436   -5.1308    0.0000 C   0  0  0  0  0  0  0  0  0  0  0  0
    2.8456   -4.1308    0.0000 C   0  0  0  0  0  0  0  0  0  0  0  0
    1.9806   -3.6292    0.0000 C   0  0  0  0  0  0  0  0  0  0  0  0
    1.9826   -2.6292    0.0000 C   0  0  0  0  0  0  0  0  0  0  0  0
    1.1176   -2.1274    0.0000 C   0  0  0  0  0  0  0  0  0  0  0  0
    1.1196   -1.1276    0.0000 N   0  0  0  0  0  0  0  0  0  0  0  0
    1.9866   -0.6292    0.0000 R   0  0  0  0  0  0  0  0  0  0  0  0
    0.2548   -0.6258    0.0000 C   0  0  0  0  0  0  0  0  0  0  0  0
   -0.6124   -1.1240    0.0000 O   0  0  0  0  0  0  0  0  0  0  0  0
    0.2568    0.3742    0.0000 C   0  0  0  0  0  0  0  0  0  0  0  0
   -0.6080    0.8760    0.0000 C   0  0  0  0  0  0  0  0  0  0  0  0
   -0.6056    1.8760    0.0000 C   0  0  0  0  0  0  0  0  0  0  0  0
   -1.4704    2.3778    0.0000 C   0  0  0  0  0  0  0  0  0  0  0  0
   -1.4690    3.3788    0.0000 C   0  0  0  0  0  0  0  0  0  0  0  0
   -0.6574    3.9642    0.0000 S   0  0  0  0  0  0  0  0  0  0  0  0
   -0.9662    4.9152    0.0000 C   0  0  0  0  0  0  0  0  0  0  0  0
   -1.9664    4.9182    0.0000 C   0  0  0  0  0  0  0  0  0  0  0  0
   -2.2762    3.9664    0.0000 C   0  0  0  0  0  0  0  0  0  0  0  0
   -3.2764    3.9692    0.0000 N   0  0  0  0  0  0  0  0  0  0  0  0
   -3.8660    3.1604    0.0000 R   0  0  0  0  0  0  0  0  0  0  0  0
   -3.5852    4.9204    0.0000 C   0  0  0  0  0  0  0  0  0  0  0  0
   -4.5348    5.2306    0.0000 O   0  0  0  0  0  0  0  0  0  0  0  0
   -2.7738    5.5060    0.0000 N   0  0  0  0  0  0  0  0  0  0  0  0
   -2.7728    6.5068    0.0000 R   0  0  0  0  0  0  0  0  0  0  0  0
    3.7086   -5.6326    0.0000 C   0  0  0  0  0  0  0  0  0  0  0  0
    3.7066   -6.6326    0.0000 R   0  0  0  0  0  0  0  0  0  0  0  0
    4.5756   -5.1342    0.0000 O   0  0  0  0  0  0  0  0  0  0  0  0
  1  2  1  0
  2  3  1  0
  2  4  1  0
  4  5  1  1
  5  6  1  0
  6  7  1  0
  7  8  1  0
  8  9  1  0
  9 10  1  0
  9 11  1  0
 11 12  2  0
 11 13  1  0
 13 14  1  0
 14 15  1  0
 15 16  1  0
 16 17  1  0
 17 18  1  0
 18 19  1  0
 19 20  1  0
 20 21  1  0
 21 22  1  0
 22 23  1  0
 22 24  1  0
 24 25  2  0
 24 26  1  0
 26 27  1  0
  4 28  1  0
 28 29  1  0
 28 30  2  0
 21 17  1  0
 26 20  1  0
M  ISO  6   1   1   3   3  10   4  23   6  27   5  29   2
V    1 *
V    3 *
V   10 *
V   23 *
V   27 *
V   29 *
M  END
>  <symbol>  (510) 
BiotinLys

>  <m_Rgroups>  (510) 
[H],[OH],[H],[H],[H],[H]

>  <m_abbr>  (510) 
BiotinLys

>  <m_name>  (510) 
N-epsilon-biotinyl-L-lysine

>  <m_type>  (510) 
aa

>  <m_subtype>  (510) 
modified

>  <m_chem_types>  (510) 
1:backbone_n,2:backbone_c,3:backbone_n_mod,4:amide_nh,5:amide_nh,6:amide_nh

$$$$

     RDKit          2D

 17 17  0  0  0  0  0  0  0  0999 V2000
    0.5005    2.4724    0.0000 R   0  0  0  0  0  0  0  0  0  0  0  0
    0.5041    1.4724    0.0000 N   0  0  0  0  0  0  0  0  0  0  0  0
   -0.3601    0.9692    0.0000 R   0  0  0  0  0  0  0  0  0  0  0  0
    1.3719    0.9754    0.0000 C   0  0  0  0  0  0  0  0  0  0  0  0
    1.3755   -0.0246    0.0000 C   0  0  0  0  0  0  0  0  0  0  0  0
    0.5115   -0.5276    0.0000 C   0  0  0  0  0  0  0  0  0  0  0  0
   -0.3565   -0.0306    0.0000 C   0  0  0  0  0  0  0  0  0  0  0  0
   -1.2207   -0.5338    0.0000 C   0  0  0  0  0  0  0  0  0  0  0  0
   -1.2171   -1.5338    0.0000 C   0  0  0  0  0  0  0  0  0  0  0  0
   -2.0813   -2.0368    0.0000 N   0  0  0  0  0  0  0  0  0  0  0  0
   -2.9491   -1.5400    0.0000 N   0  0  0  0  0  0  0  0  0  0  0  0
   -3.8169   -1.0432    0.0000 N   0  0  0  0  0  0  0  0  0  0  0  0
   -0.3493   -2.0308    0.0000 C   0  0  0  0  0  0  0  0  0  0  0  0
    0.5149   -1.5276    0.0000 C   0  0  0  0  0  0  0  0  0  0  0  0
    2.2361    1.4786    0.0000 C   0  0  0  0  0  0  0  0  0  0  0  0
    2.2325    2.4786    0.0000 R   0  0  0  0  0  0  0  0  0  0  0  0
    3.1039    0.9816    0.0000 O   0  0  0  0  0  0  0  0  0  0  0  0
  1  2  1  0
  2  3  1  0
  2  4  1  0
  4  5  1  6
  5  6  1  0
  6  7  1  0
  7  8  2  0
  8  9  1  0
  9 10  1  0
 10 11  2  0
 11 12  2  0
  9 13  2  0
 13 14  1  0
  4 15  1  0
 15 16  1  0
 15 17  2  0
 14  6  2  0
M  CHG  2  11   1  12  -1
M  ISO  3   1   1   3   3  16   2
V    1 *
V    3 *
V   16 *
M  END
>  <symbol>  (511) 
Phe_4Az

>  <m_Rgroups>  (511) 
[H],[OH],[H],None,None,None

>  <m_abbr>  (511) 
Phe_4Az

>  <m_name>  (511) 
L-para-Azidophenylalanine

>  <m_type>  (511) 
aa

>  <m_subtype>  (511) 
modified

>  <m_chem_types>  (511) 
1:backbone_n,2:backbone_c,3:backbone_n_mod

$$$$

     RDKit          2D

 19 19  0  0  0  0  0  0  0  0999 V2000
    0.6726   -3.0814    0.0000 R   0  0  0  0  0  0  0  0  0  0  0  0
    0.6762   -2.0814    0.0000 N   0  0  0  0  0  0  0  0  0  0  0  0
   -0.1880   -1.5782    0.0000 R   0  0  0  0  0  0  0  0  0  0  0  0
    1.5440   -1.5844    0.0000 C   0  0  0  0  0  0  0  0  0  0  0  0
    1.5476   -0.5844    0.0000 C   0  0  0  0  0  0  0  0  0  0  0  0
    0.6834   -0.0814    0.0000 C   0  0  0  0  0  0  0  0  0  0  0  0
   -0.1844   -0.5784    0.0000 C   0  0  0  0  0  0  0  0  0  0  0  0
   -1.0486   -0.0752    0.0000 C   0  0  0  0  0  0  0  0  0  0  0  0
   -1.0452    0.9248    0.0000 C   0  0  0  0  0  0  0  0  0  0  0  0
   -1.9092    1.4278    0.0000 O   0  0  0  0  0  0  0  0  0  0  0  0
   -1.9056    2.4278    0.0000 C   0  0  0  0  0  0  0  0  0  0  0  0
   -1.0378    2.9248    0.0000 R   0  0  0  0  0  0  0  0  0  0  0  0
   -2.7698    2.9310    0.0000 C   0  0  0  0  0  0  0  0  0  0  0  0
   -3.6340    3.4340    0.0000 C   0  0  0  0  0  0  0  0  0  0  0  0
   -0.1772    1.4218    0.0000 C   0  0  0  0  0  0  0  0  0  0  0  0
    0.6870    0.9186    0.0000 C   0  0  0  0  0  0  0  0  0  0  0  0
    2.4082   -2.0876    0.0000 C   0  0  0  0  0  0  0  0  0  0  0  0
    2.4046   -3.0876    0.0000 R   0  0  0  0  0  0  0  0  0  0  0  0
    3.2760   -1.5906    0.0000 O   0  0  0  0  0  0  0  0  0  0  0  0
  1  2  1  0
  2  3  1  0
  2  4  1  0
  4  5  1  1
  5  6  1  0
  6  7  1  0
  7  8  2  0
  8  9  1  0
  9 10  1  0
 10 11  1  0
 11 12  1  0
 11 13  1  0
 13 14  3  0
  9 15  2  0
 15 16  1  0
  4 17  1  0
 17 18  1  0
 17 19  2  0
 16  6  2  0
M  ISO  4   1   1   3   3  12   4  18   2
V    1 *
V    3 *
V   12 *
V   18 *
M  END
>  <symbol>  (512) 
Phe_4OPrg

>  <m_Rgroups>  (512) 
[H],[OH],[H],[H],None,None

>  <m_abbr>  (512) 
Phe_4OPrg

>  <m_name>  (512) 
L-para-O-Propargyl-Tyr

>  <m_type>  (512) 
aa

>  <m_subtype>  (512) 
modified

>  <m_chem_types>  (512) 
1:backbone_n,2:backbone_c,3:backbone_n_mod,4:alkyne_c

$$$$

     RDKit          2D

 18 18  0  0  0  0  0  0  0  0999 V2000
    0.3871   -2.7775    0.0000 R   0  0  0  0  0  0  0  0  0  0  0  0
    0.3863   -1.7775    0.0000 N   0  0  0  0  0  0  0  0  0  0  0  0
   -0.4801   -1.2781    0.0000 R   0  0  0  0  0  0  0  0  0  0  0  0
    1.2519   -1.2767    0.0000 C   0  0  0  0  0  0  0  0  0  0  0  0
    1.2511   -0.2767    0.0000 C   0  0  0  0  0  0  0  0  0  0  0  0
    0.3847    0.2225    0.0000 C   0  0  0  0  0  0  0  0  0  0  0  0
   -0.4809   -0.2781    0.0000 C   0  0  0  0  0  0  0  0  0  0  0  0
   -1.3475    0.2211    0.0000 C   0  0  0  0  0  0  0  0  0  0  0  0
   -1.3483    1.2213    0.0000 C   0  0  0  0  0  0  0  0  0  0  0  0
   -2.2145    1.7205    0.0000 O   0  0  0  0  0  0  0  0  0  0  0  0
   -3.0801    1.2197    0.0000 R   0  0  0  0  0  0  0  0  0  0  0  0
   -0.4825    1.7217    0.0000 C   0  0  0  0  0  0  0  0  0  0  0  0
   -0.4833    2.7219    0.0000 O   0  0  0  0  0  0  0  0  0  0  0  0
   -1.3497    3.2211    0.0000 R   0  0  0  0  0  0  0  0  0  0  0  0
    0.3839    1.2225    0.0000 C   0  0  0  0  0  0  0  0  0  0  0  0
    2.1183   -1.7761    0.0000 C   0  0  0  0  0  0  0  0  0  0  0  0
    2.1191   -2.7761    0.0000 R   0  0  0  0  0  0  0  0  0  0  0  0
    2.9839   -1.2753    0.0000 O   0  0  0  0  0  0  0  0  0  0  0  0
  1  2  1  0
  2  3  1  0
  2  4  1  0
  4  5  1  1
  5  6  1  0
  6  7  1  0
  7  8  2  0
  8  9  1  0
  9 10  1  0
 10 11  1  0
  9 12  2  0
 12 13  1  0
 13 14  1  0
 12 15  1  0
  4 16  1  0
 16 17  1  0
 16 18  2  0
 15  6  2  0
M  ISO  5   1   1   3   3  11   4  14   5  17   2
V    1 *
V    3 *
V   11 *
V   14 *
V   17 *
M  END
>  <symbol>  (513) 
Dopa

>  <m_Rgroups>  (513) 
[H],[OH],[H],[H],[H],None

>  <m_abbr>  (513) 
Dopa

>  <m_name>  (513) 
L-3,4-Dihydroxyphenylalanine (L-DOPA)

>  <m_type>  (513) 
aa

>  <m_subtype>  (513) 
modified

>  <m_chem_types>  (513) 
1:backbone_n,2:backbone_c,3:backbone_n_mod,4:hydroxyl_phenolic,5:hydroxyl_phenolic

$$$$

     RDKit          2D

 16 16  0  0  0  0  0  0  0  0999 V2000
    0.2075   -2.5007    0.0000 R   0  0  0  0  0  0  0  0  0  0  0  0
    0.2111   -1.5007    0.0000 N   0  0  0  0  0  0  0  0  0  0  0  0
   -0.6531   -0.9977    0.0000 R   0  0  0  0  0  0  0  0  0  0  0  0
    1.0789   -1.0039    0.0000 C   0  0  0  0  0  0  0  0  0  0  0  0
    1.0825   -0.0039    0.0000 C   0  0  0  0  0  0  0  0  0  0  0  0
    0.2183    0.4991    0.0000 C   0  0  0  0  0  0  0  0  0  0  0  0
   -0.6495    0.0023    0.0000 C   0  0  0  0  0  0  0  0  0  0  0  0
   -1.5137    0.5055    0.0000 C   0  0  0  0  0  0  0  0  0  0  0  0
   -1.5101    1.5053    0.0000 C   0  0  0  0  0  0  0  0  0  0  0  0
   -2.3743    2.0085    0.0000 C   0  0  0  0  0  0  0  0  0  0  0  0
   -2.3707    3.0085    0.0000 F   0  0  0  0  0  0  0  0  0  0  0  0
   -0.6423    2.0023    0.0000 C   0  0  0  0  0  0  0  0  0  0  0  0
    0.2219    1.4991    0.0000 C   0  0  0  0  0  0  0  0  0  0  0  0
    1.9431   -1.5069    0.0000 C   0  0  0  0  0  0  0  0  0  0  0  0
    1.9395   -2.5069    0.0000 R   0  0  0  0  0  0  0  0  0  0  0  0
    2.8109   -1.0101    0.0000 O   0  0  0  0  0  0  0  0  0  0  0  0
  1  2  1  0
  2  3  1  0
  2  4  1  0
  4  5  1  1
  5  6  1  0
  6  7  1  0
  7  8  2  0
  8  9  1  0
  9 10  1  0
 10 11  1  0
  9 12  2  0
 12 13  1  0
  4 14  1  0
 14 15  1  0
 14 16  2  0
 13  6  2  0
M  ISO  3   1   1   3   3  15   2
V    1 *
V    3 *
V   15 *
M  END
>  <symbol>  (514) 
Phe_4CF

>  <m_Rgroups>  (514) 
[H],[OH],[H],None,None,None

>  <m_abbr>  (514) 
Phe_4CF

>  <m_name>  (514) 
L-4-(Fluoromethyl)phenylalanine

>  <m_type>  (514) 
aa

>  <m_subtype>  (514) 
modified

>  <m_chem_types>  (514) 
1:backbone_n,2:backbone_c,3:backbone_n_mod

$$$$

     RDKit          2D

 12 11  0  0  0  0  0  0  0  0999 V2000
    3.8972    0.2468    0.0000 R   0  0  0  0  0  0  0  0  0  0  0  0
    3.0308   -0.2524    0.0000 N   0  0  0  0  0  0  0  0  0  0  0  0
    3.0300   -1.2524    0.0000 R   0  0  0  0  0  0  0  0  0  0  0  0
    2.1652    0.2482    0.0000 C   0  0  0  0  0  0  0  0  0  0  0  0
    1.2988   -0.2510    0.0000 C   0  0  0  0  0  0  0  0  0  0  0  0
    0.4332    0.2496    0.0000 O   0  0  0  0  0  0  0  0  0  0  0  0
   -0.4332   -0.2496    0.0000 C   0  0  0  0  0  0  0  0  0  0  0  0
   -1.2988    0.2510    0.0000 C   0  0  0  0  0  0  0  0  0  0  0  0
   -2.1652   -0.2482    0.0000 O   0  0  0  0  0  0  0  0  0  0  0  0
   -3.0308    0.2524    0.0000 C   0  0  0  0  0  0  0  0  0  0  0  0
   -3.8972   -0.2468    0.0000 R   0  0  0  0  0  0  0  0  0  0  0  0
   -3.0300    1.2524    0.0000 O   0  0  0  0  0  0  0  0  0  0  0  0
  1  2  1  0
  2  3  1  0
  2  4  1  0
  4  5  1  0
  5  6  1  0
  6  7  1  0
  7  8  1  0
  8  9  1  0
  9 10  1  0
 10 11  1  0
 10 12  2  0
M  ISO  3   1   1   3   3  11   2
V    1 *
V    3 *
V   11 *
M  END
>  <symbol>  (515) 
OEG2

>  <m_Rgroups>  (515) 
[H],[OH],[H],None,None,None

>  <m_abbr>  (515) 
OEG2

>  <m_name>  (515) 
8-Amino-3,6-dioxaoctanoic acid (mini-PEG 2-unit)

>  <m_type>  (515) 
linker

>  <m_subtype>  (515) 
linker

>  <m_chem_types>  (515) 
1:backbone_n,2:backbone_c,3:backbone_n_mod

$$$$

     RDKit          2D

 22 21  0  0  0  0  0  0  0  0999 V2000
    8.2272    0.2434    0.0000 R   0  0  0  0  0  0  0  0  0  0  0  0
    7.3608   -0.2558    0.0000 N   0  0  0  0  0  0  0  0  0  0  0  0
    7.3600   -1.2558    0.0000 R   0  0  0  0  0  0  0  0  0  0  0  0
    6.4952    0.2448    0.0000 C   0  0  0  0  0  0  0  0  0  0  0  0
    5.6288   -0.2544    0.0000 C   0  0  0  0  0  0  0  0  0  0  0  0
    4.7632    0.2462    0.0000 O   0  0  0  0  0  0  0  0  0  0  0  0
    3.8968   -0.2532    0.0000 C   0  0  0  0  0  0  0  0  0  0  0  0
    3.0312    0.2476    0.0000 C   0  0  0  0  0  0  0  0  0  0  0  0
    2.1648   -0.2518    0.0000 O   0  0  0  0  0  0  0  0  0  0  0  0
    1.2992    0.2490    0.0000 C   0  0  0  0  0  0  0  0  0  0  0  0
    0.4328   -0.2504    0.0000 C   0  0  0  0  0  0  0  0  0  0  0  0
   -0.4328    0.2504    0.0000 O   0  0  0  0  0  0  0  0  0  0  0  0
   -1.2992   -0.2490    0.0000 C   0  0  0  0  0  0  0  0  0  0  0  0
   -2.1648    0.2518    0.0000 C   0  0  0  0  0  0  0  0  0  0  0  0
   -3.0312   -0.2476    0.0000 O   0  0  0  0  0  0  0  0  0  0  0  0
   -3.8968    0.2532    0.0000 C   0  0  0  0  0  0  0  0  0  0  0  0
   -4.7632   -0.2462    0.0000 C   0  0  0  0  0  0  0  0  0  0  0  0
   -5.6288    0.2544    0.0000 O   0  0  0  0  0  0  0  0  0  0  0  0
   -6.4952   -0.2448    0.0000 C   0  0  0  0  0  0  0  0  0  0  0  0
   -7.3608    0.2558    0.0000 C   0  0  0  0  0  0  0  0  0  0  0  0
   -8.2272   -0.2434    0.0000 R   0  0  0  0  0  0  0  0  0  0  0  0
   -7.3600    1.2558    0.0000 O   0  0  0  0  0  0  0  0  0  0  0  0
  1  2  1  0
  2  3  1  0
  2  4  1  0
  4  5  1  0
  5  6  1  0
  6  7  1  0
  7  8  1  0
  8  9  1  0
  9 10  1  0
 10 11  1  0
 11 12  1  0
 12 13  1  0
 13 14  1  0
 14 15  1  0
 15 16  1  0
 16 17  1  0
 17 18  1  0
 18 19  1  0
 19 20  1  0
 20 21  1  0
 20 22  2  0
M  ISO  3   1   1   3   3  21   2
V    1 *
V    3 *
V   21 *
M  END
>  <symbol>  (516) 
OEG5

>  <m_Rgroups>  (516) 
[H],[OH],[H],None,None,None

>  <m_abbr>  (516) 
OEG5

>  <m_name>  (516) 
17-Amino-3,6,9,12,15-pentaoxaheptadecanoic acid (mini-PEG 5-unit)

>  <m_type>  (516) 
linker

>  <m_subtype>  (516) 
linker

>  <m_chem_types>  (516) 
1:backbone_n,2:backbone_c,3:backbone_n_mod

$$$$

     RDKit          2D

 15 15  0  0  0  0  0  0  0  0999 V2000
   -1.2600   -2.8045    0.0000 R   0  0  0  0  0  0  0  0  0  0  0  0
   -1.2636   -1.8045    0.0000 N   0  0  0  0  0  0  0  0  0  0  0  0
   -2.1314   -1.3075    0.0000 R   0  0  0  0  0  0  0  0  0  0  0  0
   -0.3994   -1.3013    0.0000 C   0  0  0  0  0  0  0  0  0  0  0  0
   -0.4030   -0.3015    0.0000 C   0  0  0  0  0  0  0  0  0  0  0  0
    0.4612    0.2017    0.0000 C   0  0  0  0  0  0  0  0  0  0  0  0
    0.4576    1.2015    0.0000 C   0  0  0  0  0  0  0  0  0  0  0  0
   -0.4104    1.6985    0.0000 C   0  0  0  0  0  0  0  0  0  0  0  0
   -0.4138    2.6985    0.0000 C   0  0  0  0  0  0  0  0  0  0  0  0
    0.4504    3.2017    0.0000 C   0  0  0  0  0  0  0  0  0  0  0  0
    1.3182    2.7047    0.0000 C   0  0  0  0  0  0  0  0  0  0  0  0
    1.3216    1.7047    0.0000 C   0  0  0  0  0  0  0  0  0  0  0  0
    0.4684   -1.7983    0.0000 C   0  0  0  0  0  0  0  0  0  0  0  0
    0.4720   -2.7983    0.0000 R   0  0  0  0  0  0  0  0  0  0  0  0
    1.3326   -1.2951    0.0000 O   0  0  0  0  0  0  0  0  0  0  0  0
  1  2  1  0
  2  3  1  0
  2  4  1  0
  4  5  1  6
  5  6  1  0
  6  7  1  0
  7  8  2  0
  8  9  1  0
  9 10  2  0
 10 11  1  0
 11 12  2  0
  4 13  1  0
 13 14  1  0
 13 15  2  0
 12  7  1  0
M  ISO  3   1   1   3   3  14   2
V    1 *
V    3 *
V   14 *
M  END
>  <symbol>  (517) 
D_hPhe2

>  <m_Rgroups>  (517) 
[H],[OH],[H],None,None,None

>  <m_abbr>  (517) 
D_hPhe2

>  <m_name>  (517) 
D-Homophenylalanine (2-amino-4-phenylbutanoic acid)

>  <m_type>  (517) 
aa

>  <m_subtype>  (517) 
modified

>  <m_chem_types>  (517) 
1:backbone_n,2:backbone_c,3:backbone_n_mod

$$$$

     RDKit          2D

 17 17  0  0  0  0  0  0  0  0999 V2000
    0.2566   -2.4999    0.0000 R   0  0  0  0  0  0  0  0  0  0  0  0
    0.2558   -1.4999    0.0000 N   0  0  0  0  0  0  0  0  0  0  0  0
   -0.6104   -1.0005    0.0000 R   0  0  0  0  0  0  0  0  0  0  0  0
    1.1216   -0.9991    0.0000 C   0  0  0  0  0  0  0  0  0  0  0  0
    1.1208    0.0009    0.0000 C   0  0  0  0  0  0  0  0  0  0  0  0
    0.2544    0.5001    0.0000 C   0  0  0  0  0  0  0  0  0  0  0  0
    0.2536    1.5003    0.0000 C   0  0  0  0  0  0  0  0  0  0  0  0
   -0.6128    1.9995    0.0000 C   0  0  0  0  0  0  0  0  0  0  0  0
   -0.6136    2.9995    0.0000 F   0  0  0  0  0  0  0  0  0  0  0  0
   -1.4786    1.4989    0.0000 C   0  0  0  0  0  0  0  0  0  0  0  0
   -2.3448    1.9981    0.0000 F   0  0  0  0  0  0  0  0  0  0  0  0
   -1.4778    0.4987    0.0000 C   0  0  0  0  0  0  0  0  0  0  0  0
   -2.3432   -0.0019    0.0000 F   0  0  0  0  0  0  0  0  0  0  0  0
   -0.6112   -0.0005    0.0000 C   0  0  0  0  0  0  0  0  0  0  0  0
    1.9878   -1.4985    0.0000 C   0  0  0  0  0  0  0  0  0  0  0  0
    1.9886   -2.4985    0.0000 R   0  0  0  0  0  0  0  0  0  0  0  0
    2.8536   -0.9977    0.0000 O   0  0  0  0  0  0  0  0  0  0  0  0
  1  2  1  0
  2  3  1  0
  2  4  1  0
  4  5  1  1
  5  6  1  0
  6  7  2  0
  7  8  1  0
  8  9  1  0
  8 10  2  0
 10 11  1  0
 10 12  1  0
 12 13  1  0
 12 14  2  0
  4 15  1  0
 15 16  1  0
 15 17  2  0
 14  6  1  0
M  ISO  3   1   1   3   3  16   2
V    1 *
V    3 *
V   16 *
M  END
>  <symbol>  (518) 
Phe_345triF

>  <m_Rgroups>  (518) 
[H],[OH],[H],None,None,None

>  <m_abbr>  (518) 
Phe_345triF

>  <m_name>  (518) 
L-3,4,5-Trifluorophenylalanine

>  <m_type>  (518) 
aa

>  <m_subtype>  (518) 
modified

>  <m_chem_types>  (518) 
1:backbone_n,2:backbone_c,3:backbone_n_mod

$$$$

     RDKit          2D

 10 10  0  0  0  0  0  0  0  0999 V2000
    1.9357    1.0916    0.0000 R   0  0  0  0  0  0  0  0  0  0  0  0
    1.2929    0.3258    0.0000 N   0  0  0  0  0  0  0  0  0  0  0  0
    1.6347   -0.6140    0.0000 R   0  0  0  0  0  0  0  0  0  0  0  0
    0.3081    0.4996    0.0000 C   0  0  0  0  0  0  0  0  0  0  0  0
   -0.3349   -0.2662    0.0000 C   0  0  0  0  0  0  0  0  0  0  0  0
   -1.2007    0.2338    0.0000 C   0  0  0  0  0  0  0  0  0  0  0  0
   -2.0667   -0.2660    0.0000 R   0  0  0  0  0  0  0  0  0  0  0  0
   -1.2005    1.2338    0.0000 O   0  0  0  0  0  0  0  0  0  0  0  0
   -0.6769   -1.2058    0.0000 C   0  0  0  0  0  0  0  0  0  0  0  0
    0.3081   -1.0324    0.0000 C   0  0  0  0  0  0  0  0  0  0  0  0
  1  2  1  0
  2  3  1  0
  2  4  1  0
  4  5  1  0
  5  6  1  0
  6  7  1  0
  6  8  2  0
  5  9  1  0
  9 10  1  0
 10  5  1  0
M  ISO  3   1   1   3   3   7   2
V    1 *
V    3 *
V    7 *
M  END
>  <symbol>  (519) 
ACC

>  <m_Rgroups>  (519) 
[H],[OH],[H],None,None,None

>  <m_abbr>  (519) 
ACC

>  <m_name>  (519) 
1-Aminocyclopropane-1-carboxylic acid

>  <m_type>  (519) 
aa

>  <m_subtype>  (519) 
modified

>  <m_chem_types>  (519) 
1:backbone_n,2:backbone_c,3:backbone_n_mod

$$$$

     RDKit          2D

 10 10  0  0  0  0  0  0  0  0999 V2000
   -1.6738    0.1578    0.0000 R   0  0  0  0  0  0  0  0  0  0  0  0
   -0.7090    0.4210    0.0000 N   0  0  0  0  0  0  0  0  0  0  0  0
   -0.4546    1.3880    0.0000 R   0  0  0  0  0  0  0  0  0  0  0  0
    0.0014   -0.2828    0.0000 C   0  0  0  0  0  0  0  0  0  0  0  0
    0.7052    0.4276    0.0000 C   0  0  0  0  0  0  0  0  0  0  0  0
    1.6722    0.1732    0.0000 R   0  0  0  0  0  0  0  0  0  0  0  0
    0.4420    1.3922    0.0000 O   0  0  0  0  0  0  0  0  0  0  0  0
   -0.7026   -0.9932    0.0000 C   0  0  0  0  0  0  0  0  0  0  0  0
    0.0078   -1.6970    0.0000 C   0  0  0  0  0  0  0  0  0  0  0  0
    0.7116   -0.9866    0.0000 C   0  0  0  0  0  0  0  0  0  0  0  0
  1  2  1  0
  2  3  1  0
  2  4  1  0
  4  5  1  0
  5  6  1  0
  5  7  2  0
  4  8  1  0
  8  9  1  0
  9 10  1  0
 10  4  1  0
M  ISO  3   1   1   3   3   6   2
V    1 *
V    3 *
V    6 *
M  END
>  <symbol>  (520) 
ACBC

>  <m_Rgroups>  (520) 
[H],[OH],[H],None,None,None

>  <m_abbr>  (520) 
ACBC

>  <m_name>  (520) 
1-Aminocyclobutane-1-carboxylic acid

>  <m_type>  (520) 
aa

>  <m_subtype>  (520) 
modified

>  <m_chem_types>  (520) 
1:backbone_n,2:backbone_c,3:backbone_n_mod

$$$$

     RDKit          2D

 14 14  0  0  0  0  0  0  0  0999 V2000
    0.7454    0.8545    0.0000 R   0  0  0  0  0  0  0  0  0  0  0  0
    0.7418   -0.1455    0.0000 N   0  0  0  0  0  0  0  0  0  0  0  0
    1.6060   -0.6487    0.0000 C   0  0  0  0  0  0  0  0  0  0  0  0
    2.4738   -0.1517    0.0000 C   0  0  0  0  0  0  0  0  0  0  0  0
    3.3380   -0.6549    0.0000 R   0  0  0  0  0  0  0  0  0  0  0  0
    2.4774    0.8483    0.0000 O   0  0  0  0  0  0  0  0  0  0  0  0
   -0.1260   -0.6425    0.0000 C   0  0  0  0  0  0  0  0  0  0  0  0
   -0.1296   -1.6425    0.0000 C   0  0  0  0  0  0  0  0  0  0  0  0
   -0.9902   -0.1393    0.0000 C   0  0  0  0  0  0  0  0  0  0  0  0
   -1.8580   -0.6363    0.0000 C   0  0  0  0  0  0  0  0  0  0  0  0
   -2.7222   -0.1331    0.0000 C   0  0  0  0  0  0  0  0  0  0  0  0
   -2.7188    0.8669    0.0000 C   0  0  0  0  0  0  0  0  0  0  0  0
   -1.8508    1.3637    0.0000 C   0  0  0  0  0  0  0  0  0  0  0  0
   -0.9868    0.8605    0.0000 C   0  0  0  0  0  0  0  0  0  0  0  0
  1  2  1  0
  2  3  1  0
  3  4  1  0
  4  5  1  0
  4  6  2  0
  2  7  1  0
  7  8  1  1
  7  9  1  0
  9 10  2  0
 10 11  1  0
 11 12  2  0
 12 13  1  0
 13 14  2  0
 14  9  1  0
M  ISO  2   1   1   5   2
V    1 *
V    5 *
M  END
>  <symbol>  (521) 
Nspe

>  <m_Rgroups>  (521) 
[H],[OH],None,None,None,None

>  <m_abbr>  (521) 
Nspe

>  <m_name>  (521) 
N-(S-1-phenylethyl)glycine (peptoid)

>  <m_type>  (521) 
aa

>  <m_subtype>  (521) 
modified

>  <m_chem_types>  (521) 
1:backbone_n,2:backbone_c

$$$$

     RDKit          2D

 14 14  0  0  0  0  0  0  0  0999 V2000
    0.7454    0.8545    0.0000 R   0  0  0  0  0  0  0  0  0  0  0  0
    0.7418   -0.1455    0.0000 N   0  0  0  0  0  0  0  0  0  0  0  0
    1.6060   -0.6487    0.0000 C   0  0  0  0  0  0  0  0  0  0  0  0
    2.4738   -0.1517    0.0000 C   0  0  0  0  0  0  0  0  0  0  0  0
    3.3380   -0.6549    0.0000 R   0  0  0  0  0  0  0  0  0  0  0  0
    2.4774    0.8483    0.0000 O   0  0  0  0  0  0  0  0  0  0  0  0
   -0.1260   -0.6425    0.0000 C   0  0  0  0  0  0  0  0  0  0  0  0
   -0.1296   -1.6425    0.0000 C   0  0  0  0  0  0  0  0  0  0  0  0
   -0.9902   -0.1393    0.0000 C   0  0  0  0  0  0  0  0  0  0  0  0
   -1.8580   -0.6363    0.0000 C   0  0  0  0  0  0  0  0  0  0  0  0
   -2.7222   -0.1331    0.0000 C   0  0  0  0  0  0  0  0  0  0  0  0
   -2.7188    0.8669    0.0000 C   0  0  0  0  0  0  0  0  0  0  0  0
   -1.8508    1.3637    0.0000 C   0  0  0  0  0  0  0  0  0  0  0  0
   -0.9868    0.8605    0.0000 C   0  0  0  0  0  0  0  0  0  0  0  0
  1  2  1  0
  2  3  1  0
  3  4  1  0
  4  5  1  0
  4  6  2  0
  2  7  1  0
  7  8  1  6
  7  9  1  0
  9 10  2  0
 10 11  1  0
 11 12  2  0
 12 13  1  0
 13 14  2  0
 14  9  1  0
M  ISO  2   1   1   5   2
V    1 *
V    5 *
M  END
>  <symbol>  (522) 
Nrpe

>  <m_Rgroups>  (522) 
[H],[OH],None,None,None,None

>  <m_abbr>  (522) 
Nrpe

>  <m_name>  (522) 
N-(R-1-phenylethyl)glycine (peptoid)

>  <m_type>  (522) 
aa

>  <m_subtype>  (522) 
modified

>  <m_chem_types>  (522) 
1:backbone_n,2:backbone_c

$$$$

     RDKit          2D

 14 13  0  0  0  0  0  0  0  0999 V2000
    1.7281    1.0776    0.0000 R   0  0  0  0  0  0  0  0  0  0  0  0
    1.7317    0.0776    0.0000 N   0  0  0  0  0  0  0  0  0  0  0  0
    0.8675   -0.4254    0.0000 C   0  0  0  0  0  0  0  0  0  0  0  0
   -0.0003    0.0714    0.0000 C   0  0  0  0  0  0  0  0  0  0  0  0
   -0.8645   -0.4316    0.0000 C   0  0  0  0  0  0  0  0  0  0  0  0
   -1.7323    0.0652    0.0000 C   0  0  0  0  0  0  0  0  0  0  0  0
   -2.5965   -0.4378    0.0000 C   0  0  0  0  0  0  0  0  0  0  0  0
   -3.4643    0.0590    0.0000 C   0  0  0  0  0  0  0  0  0  0  0  0
   -4.3285   -0.4440    0.0000 C   0  0  0  0  0  0  0  0  0  0  0  0
   -5.1963    0.0528    0.0000 C   0  0  0  0  0  0  0  0  0  0  0  0
    2.5995   -0.4192    0.0000 C   0  0  0  0  0  0  0  0  0  0  0  0
    3.4637    0.0840    0.0000 C   0  0  0  0  0  0  0  0  0  0  0  0
    4.3317   -0.4130    0.0000 R   0  0  0  0  0  0  0  0  0  0  0  0
    3.4601    1.0838    0.0000 O   0  0  0  0  0  0  0  0  0  0  0  0
  1  2  1  0
  2  3  1  0
  3  4  1  0
  4  5  1  0
  5  6  1  0
  6  7  1  0
  7  8  1  0
  8  9  1  0
  9 10  1  0
  2 11  1  0
 11 12  1  0
 12 13  1  0
 12 14  2  0
M  ISO  2   1   1  13   2
V    1 *
V   13 *
M  END
>  <symbol>  (523) 
NocGly

>  <m_Rgroups>  (523) 
[H],[OH],None,None,None,None

>  <m_abbr>  (523) 
NocGly

>  <m_name>  (523) 
N-octylglycine (lipopeptoid)

>  <m_type>  (523) 
aa

>  <m_subtype>  (523) 
modified

>  <m_chem_types>  (523) 
1:backbone_n,2:backbone_c

$$$$

     RDKit          2D

 13 13  0  0  0  0  0  0  0  0999 V2000
   -0.2470   -2.0100    0.0000 R   0  0  0  0  0  0  0  0  0  0  0  0
   -0.2484   -1.0100    0.0000 N   0  0  0  0  0  0  0  0  0  0  0  0
   -1.1150   -0.5110    0.0000 R   0  0  0  0  0  0  0  0  0  0  0  0
    0.6170   -0.5090    0.0000 C   0  0  0  0  0  0  0  0  0  0  0  0
    0.6158    0.4910    0.0000 C   0  0  0  0  0  0  0  0  0  0  0  0
   -0.2508    0.9898    0.0000 C   0  0  0  0  0  0  0  0  0  0  0  0
   -0.3564    1.9846    0.0000 N   0  0  0  0  0  0  0  0  0  0  0  0
   -1.3348    2.1910    0.0000 C   0  0  0  0  0  0  0  0  0  0  0  0
   -1.8340    1.3246    0.0000 C   0  0  0  0  0  0  0  0  0  0  0  0
   -1.1638    0.5822    0.0000 S   0  0  0  0  0  0  0  0  0  0  0  0
    1.4836   -1.0080    0.0000 C   0  0  0  0  0  0  0  0  0  0  0  0
    1.4848   -2.0080    0.0000 R   0  0  0  0  0  0  0  0  0  0  0  0
    2.3490   -0.5070    0.0000 O   0  0  0  0  0  0  0  0  0  0  0  0
  1  2  1  0
  2  3  1  0
  2  4  1  0
  4  5  1  1
  5  6  1  0
  6  7  2  0
  7  8  1  0
  8  9  2  0
  9 10  1  0
  4 11  1  0
 11 12  1  0
 11 13  2  0
 10  6  1  0
M  ISO  3   1   1   3   3  12   2
V    1 *
V    3 *
V   12 *
M  END
>  <symbol>  (524) 
Thz2Ala

>  <m_Rgroups>  (524) 
[H],[OH],[H],None,None,None

>  <m_abbr>  (524) 
Thz2Ala

>  <m_name>  (524) 
L-2-(Thiazolyl)alanine

>  <m_type>  (524) 
aa

>  <m_subtype>  (524) 
modified

>  <m_chem_types>  (524) 
1:backbone_n,2:backbone_c,3:backbone_n_mod

$$$$

     RDKit          2D

 14 14  0  0  0  0  0  0  0  0999 V2000
   -0.1344   -2.2309    0.0000 R   0  0  0  0  0  0  0  0  0  0  0  0
   -0.1304   -1.2309    0.0000 N   0  0  0  0  0  0  0  0  0  0  0  0
   -0.9944   -0.7275    0.0000 R   0  0  0  0  0  0  0  0  0  0  0  0
    0.7378   -0.7345    0.0000 C   0  0  0  0  0  0  0  0  0  0  0  0
    0.7418    0.2655    0.0000 C   0  0  0  0  0  0  0  0  0  0  0  0
   -0.1222    0.7689    0.0000 C   0  0  0  0  0  0  0  0  0  0  0  0
   -1.0376    0.3655    0.0000 C   0  0  0  0  0  0  0  0  0  0  0  0
   -1.7034    1.1115    0.0000 C   0  0  0  0  0  0  0  0  0  0  0  0
   -1.2004    1.9755    0.0000 N   0  0  0  0  0  0  0  0  0  0  0  0
   -1.6034    2.8905    0.0000 R   0  0  0  0  0  0  0  0  0  0  0  0
   -0.2228    1.7637    0.0000 N   0  0  0  0  0  0  0  0  0  0  0  0
    1.6018   -1.2379    0.0000 C   0  0  0  0  0  0  0  0  0  0  0  0
    1.5978   -2.2377    0.0000 R   0  0  0  0  0  0  0  0  0  0  0  0
    2.4698   -0.7415    0.0000 O   0  0  0  0  0  0  0  0  0  0  0  0
  1  2  1  0
  2  3  1  0
  2  4  1  0
  4  5  1  1
  5  6  1  0
  6  7  1  0
  7  8  2  0
  8  9  1  0
  9 10  1  0
  9 11  1  0
  4 12  1  0
 12 13  1  0
 12 14  2  0
 11  6  2  0
M  ISO  4   1   1   3   3  10   4  13   2
V    1 *
V    3 *
V   10 *
V   13 *
M  END
>  <symbol>  (525) 
Pyz3Ala

>  <m_Rgroups>  (525) 
[H],[OH],[H],[H],None,None

>  <m_abbr>  (525) 
Pyz3Ala

>  <m_name>  (525) 
L-3-(Pyrazolyl)alanine

>  <m_type>  (525) 
aa

>  <m_subtype>  (525) 
modified

>  <m_chem_types>  (525) 
1:backbone_n,2:backbone_c,3:backbone_n_mod,4:aromatic_nh

$$$$

     RDKit          2D

 14 14  0  0  0  0  0  0  0  0999 V2000
   -0.2862   -2.1979    0.0000 R   0  0  0  0  0  0  0  0  0  0  0  0
   -0.2822   -1.1981    0.0000 N   0  0  0  0  0  0  0  0  0  0  0  0
   -1.1462   -0.6947    0.0000 R   0  0  0  0  0  0  0  0  0  0  0  0
    0.5858   -0.7015    0.0000 C   0  0  0  0  0  0  0  0  0  0  0  0
    0.5898    0.2983    0.0000 C   0  0  0  0  0  0  0  0  0  0  0  0
   -0.2740    0.8017    0.0000 C   0  0  0  0  0  0  0  0  0  0  0  0
   -1.1894    0.3985    0.0000 N   0  0  0  0  0  0  0  0  0  0  0  0
   -1.8552    1.1443    0.0000 C   0  0  0  0  0  0  0  0  0  0  0  0
   -1.3522    2.0085    0.0000 C   0  0  0  0  0  0  0  0  0  0  0  0
   -0.3748    1.7965    0.0000 N   0  0  0  0  0  0  0  0  0  0  0  0
    0.3710    2.4629    0.0000 R   0  0  0  0  0  0  0  0  0  0  0  0
    1.4500   -1.2049    0.0000 C   0  0  0  0  0  0  0  0  0  0  0  0
    1.4460   -2.2049    0.0000 R   0  0  0  0  0  0  0  0  0  0  0  0
    2.3180   -0.7085    0.0000 O   0  0  0  0  0  0  0  0  0  0  0  0
  1  2  1  0
  2  3  1  0
  2  4  1  0
  4  5  1  1
  5  6  1  0
  6  7  2  0
  7  8  1  0
  8  9  2  0
  9 10  1  0
 10 11  1  0
  4 12  1  0
 12 13  1  0
 12 14  2  0
 10  6  1  0
M  ISO  4   1   1   3   3  11   4  13   2
V    1 *
V    3 *
V   11 *
V   13 *
M  END
>  <symbol>  (526) 
Im2Ala

>  <m_Rgroups>  (526) 
[H],[OH],[H],[H],None,None

>  <m_abbr>  (526) 
Im2Ala

>  <m_name>  (526) 
L-2-(Imidazolyl)alanine

>  <m_type>  (526) 
aa

>  <m_subtype>  (526) 
modified

>  <m_chem_types>  (526) 
1:backbone_n,2:backbone_c,3:backbone_n_mod,4:aromatic_nh

$$$$

     RDKit          2D

 16 15  0  0  0  0  0  0  0  0999 V2000
   -1.8335    3.3785    0.0000 R   0  0  0  0  0  0  0  0  0  0  0  0
   -1.8355    2.3785    0.0000 N   0  0  0  0  0  0  0  0  0  0  0  0
   -2.7025    1.8803    0.0000 R   0  0  0  0  0  0  0  0  0  0  0  0
   -0.9705    1.8769    0.0000 C   0  0  0  0  0  0  0  0  0  0  0  0
   -0.9725    0.8769    0.0000 C   0  0  0  0  0  0  0  0  0  0  0  0
   -0.1075    0.3751    0.0000 C   0  0  0  0  0  0  0  0  0  0  0  0
   -0.1095   -0.6247    0.0000 C   0  0  0  0  0  0  0  0  0  0  0  0
    0.7555   -1.1265    0.0000 C   0  0  0  0  0  0  0  0  0  0  0  0
    0.7535   -2.1265    0.0000 C   0  0  0  0  0  0  0  0  0  0  0  0
    1.6185   -2.6281    0.0000 C   0  0  0  0  0  0  0  0  0  0  0  0
    1.6165   -3.6281    0.0000 N   0  0  0  0  0  0  0  0  0  0  0  0
    2.4815   -4.1299    0.0000 R   0  0  0  0  0  0  0  0  0  0  0  0
    0.7495   -4.1265    0.0000 R   0  0  0  0  0  0  0  0  0  0  0  0
   -0.1035    2.3751    0.0000 C   0  0  0  0  0  0  0  0  0  0  0  0
    0.7617    1.8735    0.0000 R   0  0  0  0  0  0  0  0  0  0  0  0
   -0.1013    3.3751    0.0000 O   0  0  0  0  0  0  0  0  0  0  0  0
  1  2  1  0
  2  3  1  0
  2  4  1  0
  4  5  1  6
  5  6  1  0
  6  7  1  0
  7  8  1  0
  8  9  1  0
  9 10  1  0
 10 11  1  0
 11 12  1  0
 11 13  1  0
  4 14  1  0
 14 15  1  0
 14 16  2  0
M  ISO  5   1   1   3   3  12   4  13   5  15   2
V    1 *
V    3 *
V   12 *
V   13 *
V   15 *
M  END
>  <symbol>  (527) 
Dao

>  <m_Rgroups>  (527) 
[H],[OH],[H],[H],[H],None

>  <m_abbr>  (527) 
Dao

>  <m_name>  (527) 
L-2,8-Diaminooctanoic acid

>  <m_type>  (527) 
aa

>  <m_subtype>  (527) 
modified

>  <m_chem_types>  (527) 
1:backbone_n,2:backbone_c,3:backbone_n_mod,4:amine_primary,5:amine_secondary

$$$$

     RDKit          2D

 11 11  0  0  0  0  0  0  0  0999 V2000
   -2.0760   -0.4575    0.0000 R   0  0  0  0  0  0  0  0  0  0  0  0
   -1.2108    0.0435    0.0000 N   0  0  0  0  0  0  0  0  0  0  0  0
   -1.2120    1.0435    0.0000 R   0  0  0  0  0  0  0  0  0  0  0  0
   -0.3442   -0.4555    0.0000 C   0  0  0  0  0  0  0  0  0  0  0  0
   -0.2386   -1.4497    0.0000 C   0  0  0  0  0  0  0  0  0  0  0  0
    0.7398   -1.6567    0.0000 C   0  0  0  0  0  0  0  0  0  0  0  0
    1.2388   -0.7901    0.0000 C   0  0  0  0  0  0  0  0  0  0  0  0
    0.5690   -0.0477    0.0000 C   0  0  0  0  0  0  0  0  0  0  0  0
    0.7758    0.9307    0.0000 C   0  0  0  0  0  0  0  0  0  0  0  0
    1.7264    1.2407    0.0000 R   0  0  0  0  0  0  0  0  0  0  0  0
    0.0320    1.5991    0.0000 O   0  0  0  0  0  0  0  0  0  0  0  0
  1  2  1  0
  2  3  1  0
  4  2  1  1
  4  5  1  0
  5  6  1  0
  6  7  1  0
  7  8  1  0
  8  9  1  6
  9 10  1  0
  9 11  2  0
  8  4  1  0
M  ISO  3   1   1   3   3  10   2
V    1 *
V    3 *
V   10 *
M  END
>  <symbol>  (528) 
ACPC

>  <m_Rgroups>  (528) 
[H],[OH],[H],None,None,None

>  <m_abbr>  (528) 
ACPC

>  <m_name>  (528) 
cis-(1R,2S)-ACPC scaffold residue

>  <m_type>  (528) 
aa

>  <m_subtype>  (528) 
modified

>  <m_chem_types>  (528) 
1:backbone_n,2:backbone_c,3:backbone_n_mod

$$$$

     RDKit          2D

 15 15  0  0  0  0  0  0  0  0999 V2000
   -1.5002    1.0679    0.0000 R   0  0  0  0  0  0  0  0  0  0  0  0
   -0.6346    0.5673    0.0000 N   0  0  0  0  0  0  0  0  0  0  0  0
    0.2318    1.0665    0.0000 R   0  0  0  0  0  0  0  0  0  0  0  0
   -0.6354   -0.4327    0.0000 C   0  0  0  0  0  0  0  0  0  0  0  0
    0.2302   -0.9335    0.0000 C   0  0  0  0  0  0  0  0  0  0  0  0
    1.0964   -0.4343    0.0000 C   0  0  0  0  0  0  0  0  0  0  0  0
    1.0972    0.5659    0.0000 C   0  0  0  0  0  0  0  0  0  0  0  0
    1.9638    1.0651    0.0000 C   0  0  0  0  0  0  0  0  0  0  0  0
    2.8294    0.5645    0.0000 C   0  0  0  0  0  0  0  0  0  0  0  0
    2.8286   -0.4355    0.0000 C   0  0  0  0  0  0  0  0  0  0  0  0
    1.9622   -0.9347    0.0000 C   0  0  0  0  0  0  0  0  0  0  0  0
   -1.5018   -0.9321    0.0000 C   0  0  0  0  0  0  0  0  0  0  0  0
   -2.3674   -0.4315    0.0000 C   0  0  0  0  0  0  0  0  0  0  0  0
   -3.2338   -0.9307    0.0000 R   0  0  0  0  0  0  0  0  0  0  0  0
   -2.3666    0.5685    0.0000 O   0  0  0  0  0  0  0  0  0  0  0  0
  1  2  1  0
  2  3  1  0
  2  4  1  0
  4  5  1  6
  5  6  1  0
  6  7  2  0
  7  8  1  0
  8  9  2  0
  9 10  1  0
 10 11  2  0
  4 12  1  0
 12 13  1  0
 13 14  1  0
 13 15  2  0
 11  6  1  0
M  ISO  3   1   1   3   3  14   2
V    1 *
V    3 *
V   14 *
M  END
>  <symbol>  (529) 
D_b3hPhe

>  <m_Rgroups>  (529) 
[H],[OH],[H],None,None,None

>  <m_abbr>  (529) 
D_b3hPhe

>  <m_name>  (529) 
D-beta3-Homophenylalanine

>  <m_type>  (529) 
aa

>  <m_subtype>  (529) 
modified

>  <m_chem_types>  (529) 
1:backbone_n,2:backbone_c,3:backbone_n_mod

$$$$

     RDKit          2D

 12 11  0  0  0  0  0  0  0  0999 V2000
    0.8669    1.1660    0.0000 R   0  0  0  0  0  0  0  0  0  0  0  0
    0.0005    0.6666    0.0000 N   0  0  0  0  0  0  0  0  0  0  0  0
   -0.8651    1.1674    0.0000 R   0  0  0  0  0  0  0  0  0  0  0  0
   -0.0003   -0.3334    0.0000 C   0  0  0  0  0  0  0  0  0  0  0  0
   -0.8667   -0.8326    0.0000 C   0  0  0  0  0  0  0  0  0  0  0  0
   -1.7323   -0.3320    0.0000 C   0  0  0  0  0  0  0  0  0  0  0  0
   -2.5987   -0.8312    0.0000 C   0  0  0  0  0  0  0  0  0  0  0  0
   -1.7315    0.6680    0.0000 C   0  0  0  0  0  0  0  0  0  0  0  0
    0.8653   -0.8340    0.0000 C   0  0  0  0  0  0  0  0  0  0  0  0
    1.7317   -0.3348    0.0000 C   0  0  0  0  0  0  0  0  0  0  0  0
    2.5973   -0.8354    0.0000 R   0  0  0  0  0  0  0  0  0  0  0  0
    1.7325    0.6652    0.0000 O   0  0  0  0  0  0  0  0  0  0  0  0
  1  2  1  0
  2  3  1  0
  2  4  1  0
  4  5  1  1
  5  6  1  0
  6  7  1  0
  6  8  1  0
  4  9  1  0
  9 10  1  0
 10 11  1  0
 10 12  2  0
M  ISO  3   1   1   3   3  11   2
V    1 *
V    3 *
V   11 *
M  END
>  <symbol>  (530) 
D_b3hLeu

>  <m_Rgroups>  (530) 
[H],[OH],[H],None,None,None

>  <m_abbr>  (530) 
D_b3hLeu

>  <m_name>  (530) 
D-beta3-Homoleucine

>  <m_type>  (530) 
aa

>  <m_subtype>  (530) 
modified

>  <m_chem_types>  (530) 
1:backbone_n,2:backbone_c,3:backbone_n_mod

$$$$

     RDKit          2D

 11 10  0  0  0  0  0  0  0  0999 V2000
   -1.1775    1.6841    0.0000 R   0  0  0  0  0  0  0  0  0  0  0  0
   -1.1795    0.6841    0.0000 N   0  0  0  0  0  0  0  0  0  0  0  0
   -2.0465    0.1859    0.0000 R   0  0  0  0  0  0  0  0  0  0  0  0
   -0.3145    0.1825    0.0000 C   0  0  0  0  0  0  0  0  0  0  0  0
    0.5525    0.6807    0.0000 C   0  0  0  0  0  0  0  0  0  0  0  0
    1.4175    0.1789    0.0000 C   0  0  0  0  0  0  0  0  0  0  0  0
    0.5545    1.6807    0.0000 C   0  0  0  0  0  0  0  0  0  0  0  0
   -0.3165   -0.8175    0.0000 C   0  0  0  0  0  0  0  0  0  0  0  0
    0.5485   -1.3193    0.0000 C   0  0  0  0  0  0  0  0  0  0  0  0
    0.5465   -2.3193    0.0000 R   0  0  0  0  0  0  0  0  0  0  0  0
    1.4155   -0.8209    0.0000 O   0  0  0  0  0  0  0  0  0  0  0  0
  1  2  1  0
  2  3  1  0
  2  4  1  0
  4  5  1  0
  5  6  1  0
  5  7  1  0
  4  8  1  6
  8  9  1  0
  9 10  1  0
  9 11  2  0
M  ISO  3   1   1   3   3  10   2
V    1 *
V    3 *
V   10 *
M  END
>  <symbol>  (531) 
D_b3hVal

>  <m_Rgroups>  (531) 
[H],[OH],[H],None,None,None

>  <m_abbr>  (531) 
D_b3hVal

>  <m_name>  (531) 
D-beta3-Homovaline

>  <m_type>  (531) 
aa

>  <m_subtype>  (531) 
modified

>  <m_chem_types>  (531) 
1:backbone_n,2:backbone_c,3:backbone_n_mod

$$$$

     RDKit          2D

 18 19  0  0  0  0  0  0  0  0999 V2000
    2.9575    0.1182    0.0000 R   0  0  0  0  0  0  0  0  0  0  0  0
    2.0903    0.6162    0.0000 N   0  0  0  0  0  0  0  0  0  0  0  0
    2.0881    1.6164    0.0000 R   0  0  0  0  0  0  0  0  0  0  0  0
    1.2255    0.1144    0.0000 C   0  0  0  0  0  0  0  0  0  0  0  0
    0.3583    0.6124    0.0000 C   0  0  0  0  0  0  0  0  0  0  0  0
   -0.5065    0.1104    0.0000 C   0  0  0  0  0  0  0  0  0  0  0  0
   -0.6091   -0.8842    0.0000 C   0  0  0  0  0  0  0  0  0  0  0  0
   -1.5865   -1.0946    0.0000 N   0  0  0  0  0  0  0  0  0  0  0  0
   -2.0885   -0.2294    0.0000 C   0  0  0  0  0  0  0  0  0  0  0  0
   -3.0671   -0.0238    0.0000 C   0  0  0  0  0  0  0  0  0  0  0  0
   -3.3783    0.9266    0.0000 C   0  0  0  0  0  0  0  0  0  0  0  0
   -2.7107    1.6712    0.0000 C   0  0  0  0  0  0  0  0  0  0  0  0
   -1.7321    1.4654    0.0000 C   0  0  0  0  0  0  0  0  0  0  0  0
   -1.4211    0.5152    0.0000 C   0  0  0  0  0  0  0  0  0  0  0  0
    1.2279   -0.8856    0.0000 C   0  0  0  0  0  0  0  0  0  0  0  0
    2.0949   -1.3834    0.0000 C   0  0  0  0  0  0  0  0  0  0  0  0
    2.0973   -2.3834    0.0000 R   0  0  0  0  0  0  0  0  0  0  0  0
    2.9599   -0.8816    0.0000 O   0  0  0  0  0  0  0  0  0  0  0  0
  1  2  1  0
  2  3  1  0
  2  4  1  0
  4  5  1  1
  5  6  1  0
  6  7  1  0
  7  8  1  0
  8  9  1  0
  9 10  1  0
 10 11  1  0
 11 12  1  0
 12 13  1  0
 13 14  1  0
  4 15  1  0
 15 16  1  0
 16 17  1  0
 16 18  2  0
 14  6  1  0
 14  9  1  0
M  ISO  3   1   1   3   3  17   2
V    1 *
V    3 *
V   17 *
M  END
>  <symbol>  (532) 
D_b3hTrp

>  <m_Rgroups>  (532) 
[H],[OH],[H],None,None,None

>  <m_abbr>  (532) 
D_b3hTrp

>  <m_name>  (532) 
D-beta3-Homotryptophan

>  <m_type>  (532) 
aa

>  <m_subtype>  (532) 
modified

>  <m_chem_types>  (532) 
1:backbone_n,2:backbone_c,3:backbone_n_mod

$$$$

     RDKit          2D

 11 10  0  0  0  0  0  0  0  0999 V2000
   -3.0682    1.2990    0.0000 R   0  0  0  0  0  0  0  0  0  0  0  0
   -2.3182    0.0000    0.0000 N   0  0  0  0  0  0  0  0  0  0  0  0
   -3.0682   -1.2990    0.0000 R   0  0  0  0  0  0  0  0  0  0  0  0
   -0.8182    0.0000    0.0000 C   0  0  0  0  0  0  0  0  0  0  0  0
   -0.0682    1.2990    0.0000 C   0  0  0  0  0  0  0  0  0  0  0  0
    1.4318    1.2990    0.0000 O   0  0  0  0  0  0  0  0  0  0  0  0
    2.1818    2.5981    0.0000 R   0  0  0  0  0  0  0  0  0  0  0  0
   -0.0682   -1.2990    0.0000 C   0  0  0  0  0  0  0  0  0  0  0  0
    1.4318   -1.2990    0.0000 C   0  0  0  0  0  0  0  0  0  0  0  0
    2.1818   -2.5981    0.0000 R   0  0  0  0  0  0  0  0  0  0  0  0
    2.1818   -0.0000    0.0000 O   0  0  0  0  0  0  0  0  0  0  0  0
  1  2  1  0
  2  3  1  0
  2  4  1  0
  4  5  1  6
  5  6  1  0
  6  7  1  0
  4  8  1  0
  8  9  1  0
  9 10  1  0
  9 11  2  0
M  ISO  4   1   1   3   3   7   4  10   2
V    1 *
V    3 *
V    7 *
V   10 *
M  END
>  <symbol>  (533) 
D_b3hSer

>  <m_Rgroups>  (533) 
[H],[OH],[H],[H],None,None

>  <m_abbr>  (533) 
D_b3hSer

>  <m_name>  (533) 
D-beta3-Homoserine

>  <m_type>  (533) 
aa

>  <m_subtype>  (533) 
modified

>  <m_chem_types>  (533) 
1:backbone_n,2:backbone_c,3:backbone_n_mod

$$$$

     RDKit          2D

  9  8  0  0  0  0  0  0  0  0999 V2000
    2.1170    0.1095    0.0000 R   0  0  0  0  0  0  0  0  0  0  0  0
    1.2506   -0.3899    0.0000 N   0  0  0  0  0  0  0  0  0  0  0  0
    1.2498   -1.3899    0.0000 R   0  0  0  0  0  0  0  0  0  0  0  0
    0.3850    0.1107    0.0000 C   0  0  0  0  0  0  0  0  0  0  0  0
    0.3858    1.1107    0.0000 C   0  0  0  0  0  0  0  0  0  0  0  0
   -0.4814   -0.3885    0.0000 C   0  0  0  0  0  0  0  0  0  0  0  0
   -1.3470    0.1121    0.0000 C   0  0  0  0  0  0  0  0  0  0  0  0
   -2.2134   -0.3871    0.0000 R   0  0  0  0  0  0  0  0  0  0  0  0
   -1.3462    1.1121    0.0000 O   0  0  0  0  0  0  0  0  0  0  0  0
  1  2  1  0
  2  3  1  0
  2  4  1  0
  4  5  1  1
  4  6  1  0
  6  7  1  0
  7  8  1  0
  7  9  2  0
M  ISO  3   1   1   3   3   8   2
V    1 *
V    3 *
V    8 *
M  END
>  <symbol>  (534) 
D_b3hAla

>  <m_Rgroups>  (534) 
[H],[OH],[H],None,None,None

>  <m_abbr>  (534) 
D_b3hAla

>  <m_name>  (534) 
D-beta3-Homoalanine

>  <m_type>  (534) 
aa

>  <m_subtype>  (534) 
modified

>  <m_chem_types>  (534) 
1:backbone_n,2:backbone_c,3:backbone_n_mod

$$$$

     RDKit          2D

 25 24  0  0  0  0  0  0  0  0999 V2000
   -9.5263   -0.3324    0.0000 R   0  0  0  0  0  0  0  0  0  0  0  0
   -8.6599    0.1668    0.0000 N   0  0  0  0  0  0  0  0  0  0  0  0
   -8.6591    1.1668    0.0000 R   0  0  0  0  0  0  0  0  0  0  0  0
   -7.7943   -0.3338    0.0000 C   0  0  0  0  0  0  0  0  0  0  0  0
   -6.9279    0.1656    0.0000 C   0  0  0  0  0  0  0  0  0  0  0  0
   -6.0623   -0.3352    0.0000 O   0  0  0  0  0  0  0  0  0  0  0  0
   -5.1959    0.1642    0.0000 C   0  0  0  0  0  0  0  0  0  0  0  0
   -4.3303   -0.3366    0.0000 C   0  0  0  0  0  0  0  0  0  0  0  0
   -3.4639    0.1628    0.0000 O   0  0  0  0  0  0  0  0  0  0  0  0
   -2.5983   -0.3380    0.0000 C   0  0  0  0  0  0  0  0  0  0  0  0
   -1.7319    0.1614    0.0000 C   0  0  0  0  0  0  0  0  0  0  0  0
   -0.8663   -0.3394    0.0000 O   0  0  0  0  0  0  0  0  0  0  0  0
    0.0001    0.1600    0.0000 C   0  0  0  0  0  0  0  0  0  0  0  0
    0.8657   -0.3406    0.0000 C   0  0  0  0  0  0  0  0  0  0  0  0
    1.7321    0.1586    0.0000 O   0  0  0  0  0  0  0  0  0  0  0  0
    2.5977   -0.3420    0.0000 C   0  0  0  0  0  0  0  0  0  0  0  0
    3.4641    0.1572    0.0000 C   0  0  0  0  0  0  0  0  0  0  0  0
    4.3297   -0.3434    0.0000 O   0  0  0  0  0  0  0  0  0  0  0  0
    5.1961    0.1558    0.0000 C   0  0  0  0  0  0  0  0  0  0  0  0
    6.0617   -0.3448    0.0000 C   0  0  0  0  0  0  0  0  0  0  0  0
    6.9281    0.1544    0.0000 O   0  0  0  0  0  0  0  0  0  0  0  0
    7.7937   -0.3462    0.0000 C   0  0  0  0  0  0  0  0  0  0  0  0
    8.6601    0.1532    0.0000 C   0  0  0  0  0  0  0  0  0  0  0  0
    9.5257   -0.3476    0.0000 R   0  0  0  0  0  0  0  0  0  0  0  0
    8.6609    1.1532    0.0000 O   0  0  0  0  0  0  0  0  0  0  0  0
  1  2  1  0
  2  3  1  0
  2  4  1  0
  4  5  1  0
  5  6  1  0
  6  7  1  0
  7  8  1  0
  8  9  1  0
  9 10  1  0
 10 11  1  0
 11 12  1  0
 12 13  1  0
 13 14  1  0
 14 15  1  0
 15 16  1  0
 16 17  1  0
 17 18  1  0
 18 19  1  0
 19 20  1  0
 20 21  1  0
 21 22  1  0
 22 23  1  0
 23 24  1  0
 23 25  2  0
M  ISO  3   1   1   3   3  24   2
V    1 *
V    3 *
V   24 *
M  END
>  <symbol>  (535) 
OEG6

>  <m_Rgroups>  (535) 
[H],[OH],[H],None,None,None

>  <m_abbr>  (535) 
OEG6

>  <m_name>  (535) 
20-Amino-3,6,9,12,15,18-hexaoxaicosanoic acid (mini-PEG 6-unit)

>  <m_type>  (535) 
linker

>  <m_subtype>  (535) 
linker

>  <m_chem_types>  (535) 
1:backbone_n,2:backbone_c,3:backbone_n_mod

$$$$

     RDKit          2D

 13 13  0  0  0  0  0  0  0  0999 V2000
   -0.2470   -2.0100    0.0000 R   0  0  0  0  0  0  0  0  0  0  0  0
   -0.2484   -1.0100    0.0000 N   0  0  0  0  0  0  0  0  0  0  0  0
   -1.1150   -0.5110    0.0000 R   0  0  0  0  0  0  0  0  0  0  0  0
    0.6170   -0.5090    0.0000 C   0  0  0  0  0  0  0  0  0  0  0  0
    0.6158    0.4910    0.0000 C   0  0  0  0  0  0  0  0  0  0  0  0
   -0.2508    0.9898    0.0000 C   0  0  0  0  0  0  0  0  0  0  0  0
   -0.3564    1.9846    0.0000 C   0  0  0  0  0  0  0  0  0  0  0  0
   -1.3348    2.1910    0.0000 C   0  0  0  0  0  0  0  0  0  0  0  0
   -1.8340    1.3246    0.0000 C   0  0  0  0  0  0  0  0  0  0  0  0
   -1.1638    0.5822    0.0000 O   0  0  0  0  0  0  0  0  0  0  0  0
    1.4836   -1.0080    0.0000 C   0  0  0  0  0  0  0  0  0  0  0  0
    1.4848   -2.0080    0.0000 R   0  0  0  0  0  0  0  0  0  0  0  0
    2.3490   -0.5070    0.0000 O   0  0  0  0  0  0  0  0  0  0  0  0
  1  2  1  0
  2  3  1  0
  2  4  1  0
  4  5  1  6
  5  6  1  0
  6  7  2  0
  7  8  1  0
  8  9  2  0
  9 10  1  0
  4 11  1  0
 11 12  1  0
 11 13  2  0
 10  6  1  0
M  ISO  3   1   1   3   3  12   2
V    1 *
V    3 *
V   12 *
M  END
>  <symbol>  (536) 
D_Fur2Ala

>  <m_Rgroups>  (536) 
[H],[OH],[H],None,None,None

>  <m_abbr>  (536) 
D_Fur2Ala

>  <m_name>  (536) 
D-2-Furylalanine

>  <m_type>  (536) 
aa

>  <m_subtype>  (536) 
modified

>  <m_chem_types>  (536) 
1:backbone_n,2:backbone_c,3:backbone_n_mod

$$$$

     RDKit          2D

 13 13  0  0  0  0  0  0  0  0999 V2000
   -0.2470   -2.0100    0.0000 R   0  0  0  0  0  0  0  0  0  0  0  0
   -0.2484   -1.0100    0.0000 N   0  0  0  0  0  0  0  0  0  0  0  0
   -1.1150   -0.5110    0.0000 R   0  0  0  0  0  0  0  0  0  0  0  0
    0.6170   -0.5090    0.0000 C   0  0  0  0  0  0  0  0  0  0  0  0
    0.6158    0.4910    0.0000 C   0  0  0  0  0  0  0  0  0  0  0  0
   -0.2508    0.9898    0.0000 C   0  0  0  0  0  0  0  0  0  0  0  0
   -1.1638    0.5822    0.0000 C   0  0  0  0  0  0  0  0  0  0  0  0
   -1.8340    1.3246    0.0000 C   0  0  0  0  0  0  0  0  0  0  0  0
   -1.3348    2.1910    0.0000 O   0  0  0  0  0  0  0  0  0  0  0  0
   -0.3564    1.9846    0.0000 C   0  0  0  0  0  0  0  0  0  0  0  0
    1.4836   -1.0080    0.0000 C   0  0  0  0  0  0  0  0  0  0  0  0
    1.4848   -2.0080    0.0000 R   0  0  0  0  0  0  0  0  0  0  0  0
    2.3490   -0.5070    0.0000 O   0  0  0  0  0  0  0  0  0  0  0  0
  1  2  1  0
  2  3  1  0
  2  4  1  0
  4  5  1  6
  5  6  1  0
  6  7  1  0
  7  8  2  0
  8  9  1  0
  9 10  1  0
  4 11  1  0
 11 12  1  0
 11 13  2  0
 10  6  2  0
M  ISO  3   1   1   3   3  12   2
V    1 *
V    3 *
V   12 *
M  END
>  <symbol>  (537) 
D_Fur3Ala

>  <m_Rgroups>  (537) 
[H],[OH],[H],None,None,None

>  <m_abbr>  (537) 
D_Fur3Ala

>  <m_name>  (537) 
D-3-Furylalanine

>  <m_type>  (537) 
aa

>  <m_subtype>  (537) 
modified

>  <m_chem_types>  (537) 
1:backbone_n,2:backbone_c,3:backbone_n_mod

$$$$

     RDKit          2D

 20 21  0  0  0  0  0  0  0  0999 V2000
    0.9418   -3.0033    0.0000 R   0  0  0  0  0  0  0  0  0  0  0  0
    0.9454   -2.0033    0.0000 N   0  0  0  0  0  0  0  0  0  0  0  0
    0.0812   -1.5003    0.0000 R   0  0  0  0  0  0  0  0  0  0  0  0
    1.8132   -1.5065    0.0000 C   0  0  0  0  0  0  0  0  0  0  0  0
    1.8168   -0.5065    0.0000 C   0  0  0  0  0  0  0  0  0  0  0  0
    0.9526   -0.0035    0.0000 C   0  0  0  0  0  0  0  0  0  0  0  0
    0.0848   -0.5003    0.0000 C   0  0  0  0  0  0  0  0  0  0  0  0
   -0.7794    0.0029    0.0000 C   0  0  0  0  0  0  0  0  0  0  0  0
   -0.7758    1.0027    0.0000 C   0  0  0  0  0  0  0  0  0  0  0  0
   -1.6400    1.5059    0.0000 C   0  0  0  0  0  0  0  0  0  0  0  0
   -2.5078    1.0089    0.0000 C   0  0  0  0  0  0  0  0  0  0  0  0
   -3.3720    1.5121    0.0000 C   0  0  0  0  0  0  0  0  0  0  0  0
   -3.3684    2.5121    0.0000 C   0  0  0  0  0  0  0  0  0  0  0  0
   -2.5006    3.0089    0.0000 C   0  0  0  0  0  0  0  0  0  0  0  0
   -1.6364    2.5057    0.0000 C   0  0  0  0  0  0  0  0  0  0  0  0
    0.0920    1.4997    0.0000 C   0  0  0  0  0  0  0  0  0  0  0  0
    0.9562    0.9965    0.0000 C   0  0  0  0  0  0  0  0  0  0  0  0
    2.6774   -2.0095    0.0000 C   0  0  0  0  0  0  0  0  0  0  0  0
    2.6738   -3.0095    0.0000 R   0  0  0  0  0  0  0  0  0  0  0  0
    3.5452   -1.5127    0.0000 O   0  0  0  0  0  0  0  0  0  0  0  0
  1  2  1  0
  2  3  1  0
  2  4  1  0
  4  5  1  6
  5  6  1  0
  6  7  1  0
  7  8  2  0
  8  9  1  0
  9 10  1  0
 10 11  2  0
 11 12  1  0
 12 13  2  0
 13 14  1  0
 14 15  2  0
  9 16  2  0
 16 17  1  0
  4 18  1  0
 18 19  1  0
 18 20  2  0
 17  6  2  0
 15 10  1  0
M  ISO  3   1   1   3   3  19   2
V    1 *
V    3 *
V   19 *
M  END
>  <symbol>  (538) 
D_BiPheAla

>  <m_Rgroups>  (538) 
[H],[OH],[H],None,None,None

>  <m_abbr>  (538) 
D_BiPheAla

>  <m_name>  (538) 
D-4-Biphenylalanine

>  <m_type>  (538) 
aa

>  <m_subtype>  (538) 
modified

>  <m_chem_types>  (538) 
1:backbone_n,2:backbone_c,3:backbone_n_mod

$$$$

     RDKit          2D

 12 12  0  0  0  0  0  0  0  0999 V2000
   -0.3764   -1.8674    0.0000 R   0  0  0  0  0  0  0  0  0  0  0  0
   -0.3746   -0.8672    0.0000 N   0  0  0  0  0  0  0  0  0  0  0  0
   -1.2398   -0.3658    0.0000 R   0  0  0  0  0  0  0  0  0  0  0  0
    0.4922   -0.3687    0.0000 C   0  0  0  0  0  0  0  0  0  0  0  0
    0.4940    0.6312    0.0000 C   0  0  0  0  0  0  0  0  0  0  0  0
   -0.3714    1.1329    0.0000 C   0  0  0  0  0  0  0  0  0  0  0  0
   -1.3378    0.8759    0.0000 C   0  0  0  0  0  0  0  0  0  0  0  0
   -1.5948    1.8422    0.0000 C   0  0  0  0  0  0  0  0  0  0  0  0
   -0.6284    2.0993    0.0000 C   0  0  0  0  0  0  0  0  0  0  0  0
    1.3574   -0.8703    0.0000 C   0  0  0  0  0  0  0  0  0  0  0  0
    1.3558   -1.8703    0.0000 R   0  0  0  0  0  0  0  0  0  0  0  0
    2.2242   -0.3717    0.0000 O   0  0  0  0  0  0  0  0  0  0  0  0
  1  2  1  0
  2  3  1  0
  2  4  1  0
  4  5  1  6
  5  6  1  0
  6  7  1  0
  7  8  1  0
  8  9  1  0
  4 10  1  0
 10 11  1  0
 10 12  2  0
  9  6  1  0
M  ISO  3   1   1   3   3  11   2
V    1 *
V    3 *
V   11 *
M  END
>  <symbol>  (539) 
D_cBuAla

>  <m_Rgroups>  (539) 
[H],[OH],[H],None,None,None

>  <m_abbr>  (539) 
D_cBuAla

>  <m_name>  (539) 
D-Cyclobutylalanine

>  <m_type>  (539) 
aa

>  <m_subtype>  (539) 
modified

>  <m_chem_types>  (539) 
1:backbone_n,2:backbone_c,3:backbone_n_mod

$$$$

     RDKit          2D

 13 13  0  0  0  0  0  0  0  0999 V2000
   -0.2470   -2.0100    0.0000 R   0  0  0  0  0  0  0  0  0  0  0  0
   -0.2484   -1.0100    0.0000 N   0  0  0  0  0  0  0  0  0  0  0  0
   -1.1150   -0.5110    0.0000 R   0  0  0  0  0  0  0  0  0  0  0  0
    0.6170   -0.5090    0.0000 C   0  0  0  0  0  0  0  0  0  0  0  0
    0.6158    0.4910    0.0000 C   0  0  0  0  0  0  0  0  0  0  0  0
   -0.2508    0.9898    0.0000 C   0  0  0  0  0  0  0  0  0  0  0  0
   -1.1638    0.5822    0.0000 C   0  0  0  0  0  0  0  0  0  0  0  0
   -1.8340    1.3246    0.0000 C   0  0  0  0  0  0  0  0  0  0  0  0
   -1.3348    2.1910    0.0000 C   0  0  0  0  0  0  0  0  0  0  0  0
   -0.3564    1.9846    0.0000 C   0  0  0  0  0  0  0  0  0  0  0  0
    1.4836   -1.0080    0.0000 C   0  0  0  0  0  0  0  0  0  0  0  0
    1.4848   -2.0080    0.0000 R   0  0  0  0  0  0  0  0  0  0  0  0
    2.3490   -0.5070    0.0000 O   0  0  0  0  0  0  0  0  0  0  0  0
  1  2  1  0
  2  3  1  0
  2  4  1  0
  4  5  1  6
  5  6  1  0
  6  7  1  0
  7  8  1  0
  8  9  1  0
  9 10  1  0
  4 11  1  0
 11 12  1  0
 11 13  2  0
 10  6  1  0
M  ISO  3   1   1   3   3  12   2
V    1 *
V    3 *
V   12 *
M  END
>  <symbol>  (540) 
D_cPenAla

>  <m_Rgroups>  (540) 
[H],[OH],[H],None,None,None

>  <m_abbr>  (540) 
D_cPenAla

>  <m_name>  (540) 
D-Cyclopentylalanine

>  <m_type>  (540) 
aa

>  <m_subtype>  (540) 
modified

>  <m_chem_types>  (540) 
1:backbone_n,2:backbone_c,3:backbone_n_mod

$$$$

     RDKit          2D

 19 19  0  0  0  0  0  0  0  0999 V2000
    0.0107   -2.9474    0.0000 R   0  0  0  0  0  0  0  0  0  0  0  0
    0.0071   -1.9474    0.0000 N   0  0  0  0  0  0  0  0  0  0  0  0
   -0.8609   -1.4504    0.0000 R   0  0  0  0  0  0  0  0  0  0  0  0
    0.8713   -1.4442    0.0000 C   0  0  0  0  0  0  0  0  0  0  0  0
    0.8677   -0.4442    0.0000 C   0  0  0  0  0  0  0  0  0  0  0  0
   -0.0003    0.0526    0.0000 C   0  0  0  0  0  0  0  0  0  0  0  0
   -0.8645   -0.4504    0.0000 O   0  0  0  0  0  0  0  0  0  0  0  0
   -0.0039    1.0526    0.0000 C   0  0  0  0  0  0  0  0  0  0  0  0
    0.8603    1.5558    0.0000 C   0  0  0  0  0  0  0  0  0  0  0  0
    0.8569    2.5556    0.0000 C   0  0  0  0  0  0  0  0  0  0  0  0
   -0.0111    3.0526    0.0000 C   0  0  0  0  0  0  0  0  0  0  0  0
   -0.8751    2.5494    0.0000 C   0  0  0  0  0  0  0  0  0  0  0  0
   -0.8717    1.5494    0.0000 C   0  0  0  0  0  0  0  0  0  0  0  0
   -1.7359    1.0464    0.0000 N   0  0  0  0  0  0  0  0  0  0  0  0
   -2.6037    1.5432    0.0000 R   0  0  0  0  0  0  0  0  0  0  0  0
   -1.7323    0.0464    0.0000 R   0  0  0  0  0  0  0  0  0  0  0  0
    1.7391   -1.9412    0.0000 C   0  0  0  0  0  0  0  0  0  0  0  0
    1.7427   -2.9410    0.0000 R   0  0  0  0  0  0  0  0  0  0  0  0
    2.6033   -1.4380    0.0000 O   0  0  0  0  0  0  0  0  0  0  0  0
  1  2  1  0
  2  3  1  0
  2  4  1  0
  4  5  1  6
  5  6  1  0
  6  7  2  0
  6  8  1  0
  8  9  2  0
  9 10  1  0
 10 11  2  0
 11 12  1  0
 12 13  2  0
 13 14  1  0
 14 15  1  0
 14 16  1  0
  4 17  1  0
 17 18  1  0
 17 19  2  0
 13  8  1  0
M  ISO  5   1   1   3   3  15   4  16   5  18   2
V    1 *
V    3 *
V   15 *
V   16 *
V   18 *
M  END
>  <symbol>  (541) 
D_Kyn

>  <m_Rgroups>  (541) 
[H],[OH],[H],[H],[H],None

>  <m_abbr>  (541) 
D_Kyn

>  <m_name>  (541) 
D-Kynurenine

>  <m_type>  (541) 
aa

>  <m_subtype>  (541) 
modified

>  <m_chem_types>  (541) 
1:backbone_n,2:backbone_c,3:backbone_n_mod,4:amine_primary,5:amine_secondary

$$$$

     RDKit          2D

 18 18  0  0  0  0  0  0  0  0999 V2000
    0.3871   -2.7775    0.0000 R   0  0  0  0  0  0  0  0  0  0  0  0
    0.3863   -1.7775    0.0000 N   0  0  0  0  0  0  0  0  0  0  0  0
   -0.4801   -1.2781    0.0000 R   0  0  0  0  0  0  0  0  0  0  0  0
    1.2519   -1.2767    0.0000 C   0  0  0  0  0  0  0  0  0  0  0  0
    1.2511   -0.2767    0.0000 C   0  0  0  0  0  0  0  0  0  0  0  0
    0.3847    0.2225    0.0000 C   0  0  0  0  0  0  0  0  0  0  0  0
   -0.4809   -0.2781    0.0000 C   0  0  0  0  0  0  0  0  0  0  0  0
   -1.3475    0.2211    0.0000 C   0  0  0  0  0  0  0  0  0  0  0  0
   -1.3483    1.2213    0.0000 C   0  0  0  0  0  0  0  0  0  0  0  0
   -2.2145    1.7205    0.0000 O   0  0  0  0  0  0  0  0  0  0  0  0
   -3.0801    1.2197    0.0000 R   0  0  0  0  0  0  0  0  0  0  0  0
   -0.4825    1.7217    0.0000 C   0  0  0  0  0  0  0  0  0  0  0  0
   -0.4833    2.7219    0.0000 O   0  0  0  0  0  0  0  0  0  0  0  0
   -1.3497    3.2211    0.0000 R   0  0  0  0  0  0  0  0  0  0  0  0
    0.3839    1.2225    0.0000 C   0  0  0  0  0  0  0  0  0  0  0  0
    2.1183   -1.7761    0.0000 C   0  0  0  0  0  0  0  0  0  0  0  0
    2.1191   -2.7761    0.0000 R   0  0  0  0  0  0  0  0  0  0  0  0
    2.9839   -1.2753    0.0000 O   0  0  0  0  0  0  0  0  0  0  0  0
  1  2  1  0
  2  3  1  0
  2  4  1  0
  4  5  1  6
  5  6  1  0
  6  7  1  0
  7  8  2  0
  8  9  1  0
  9 10  1  0
 10 11  1  0
  9 12  2  0
 12 13  1  0
 13 14  1  0
 12 15  1  0
  4 16  1  0
 16 17  1  0
 16 18  2  0
 15  6  2  0
M  ISO  5   1   1   3   3  11   4  14   5  17   2
V    1 *
V    3 *
V   11 *
V   14 *
V   17 *
M  END
>  <symbol>  (542) 
D_Dopa

>  <m_Rgroups>  (542) 
[H],[OH],[H],[H],[H],None

>  <m_abbr>  (542) 
D_Dopa

>  <m_name>  (542) 
D-3,4-Dihydroxyphenylalanine (D-DOPA)

>  <m_type>  (542) 
aa

>  <m_subtype>  (542) 
modified

>  <m_chem_types>  (542) 
1:backbone_n,2:backbone_c,3:backbone_n_mod,4:hydroxyl_phenolic,5:hydroxyl_phenolic

$$$$

     RDKit          2D

 12 11  0  0  0  0  0  0  0  0999 V2000
   -1.0064   -2.0020    0.0000 R   0  0  0  0  0  0  0  0  0  0  0  0
   -1.0084   -1.0020    0.0000 N   0  0  0  0  0  0  0  0  0  0  0  0
   -1.8754   -0.5036    0.0000 R   0  0  0  0  0  0  0  0  0  0  0  0
   -0.1434   -0.5002    0.0000 C   0  0  0  0  0  0  0  0  0  0  0  0
    0.7236   -0.9986    0.0000 C   0  0  0  0  0  0  0  0  0  0  0  0
    1.5888   -0.4968    0.0000 R   0  0  0  0  0  0  0  0  0  0  0  0
    0.7258   -1.9984    0.0000 O   0  0  0  0  0  0  0  0  0  0  0  0
   -0.1454    0.4998    0.0000 C   0  0  0  0  0  0  0  0  0  0  0  0
   -1.0124    0.9980    0.0000 R   0  0  0  0  0  0  0  0  0  0  0  0
    0.7196    1.0014    0.0000 N   0  0  0  0  0  0  0  0  0  0  0  0
    0.7176    2.0014    0.0000 N   0  0  0  0  0  0  0  0  0  0  0  0
    0.7156    3.0014    0.0000 N   0  0  0  0  0  0  0  0  0  0  0  0
  1  2  1  0
  2  3  1  0
  2  4  1  0
  4  5  1  0
  5  6  1  0
  5  7  2  0
  4  8  1  6
  8  9  1  0
  8 10  1  0
 10 11  2  0
 11 12  2  0
M  CHG  2  11   1  12  -1
M  ISO  4   1   1   3   3   6   2   9   4
V    1 *
V    3 *
V    6 *
V    9 *
M  END
>  <symbol>  (543) 
D_AzAla

>  <m_Rgroups>  (543) 
[H],[OH],[H],[H],None,None

>  <m_abbr>  (543) 
D_AzAla

>  <m_name>  (543) 
D-Azidoalanine

>  <m_type>  (543) 
aa

>  <m_subtype>  (543) 
modified

>  <m_chem_types>  (543) 
1:backbone_n,2:backbone_c,3:backbone_n_mod,4:azide_alpha_c

$$$$

     RDKit          2D

 11 11  0  0  0  0  0  0  0  0999 V2000
   -0.4935   -1.7151    0.0000 R   0  0  0  0  0  0  0  0  0  0  0  0
   -0.4935   -0.7151    0.0000 N   0  0  0  0  0  0  0  0  0  0  0  0
   -1.3595   -0.2151    0.0000 R   0  0  0  0  0  0  0  0  0  0  0  0
    0.3725   -0.2151    0.0000 C   0  0  0  0  0  0  0  0  0  0  0  0
    0.3725    0.7849    0.0000 C   0  0  0  0  0  0  0  0  0  0  0  0
   -0.4935    1.2849    0.0000 C   0  0  0  0  0  0  0  0  0  0  0  0
   -1.4933    1.2849    0.0000 C   0  0  0  0  0  0  0  0  0  0  0  0
   -0.9935    2.1511    0.0000 C   0  0  0  0  0  0  0  0  0  0  0  0
    1.2385   -0.7151    0.0000 C   0  0  0  0  0  0  0  0  0  0  0  0
    1.2385   -1.7151    0.0000 R   0  0  0  0  0  0  0  0  0  0  0  0
    2.1045   -0.2151    0.0000 O   0  0  0  0  0  0  0  0  0  0  0  0
  1  2  1  0
  2  3  1  0
  2  4  1  0
  4  5  1  6
  5  6  1  0
  6  7  1  0
  7  8  1  0
  4  9  1  0
  9 10  1  0
  9 11  2  0
  8  6  1  0
M  ISO  3   1   1   3   3  10   2
V    1 *
V    3 *
V   10 *
M  END
>  <symbol>  (544) 
D_CyoAla

>  <m_Rgroups>  (544) 
[H],[OH],[H],None,None,None

>  <m_abbr>  (544) 
D_CyoAla

>  <m_name>  (544) 
D-Cyclopropylalanine

>  <m_type>  (544) 
aa

>  <m_subtype>  (544) 
modified

>  <m_chem_types>  (544) 
1:backbone_n,2:backbone_c,3:backbone_n_mod

$$$$

     RDKit          2D

 13 13  0  0  0  0  0  0  0  0999 V2000
   -0.2470   -2.0100    0.0000 R   0  0  0  0  0  0  0  0  0  0  0  0
   -0.2484   -1.0100    0.0000 N   0  0  0  0  0  0  0  0  0  0  0  0
   -1.1150   -0.5110    0.0000 R   0  0  0  0  0  0  0  0  0  0  0  0
    0.6170   -0.5090    0.0000 C   0  0  0  0  0  0  0  0  0  0  0  0
    0.6158    0.4910    0.0000 C   0  0  0  0  0  0  0  0  0  0  0  0
   -0.2508    0.9898    0.0000 C   0  0  0  0  0  0  0  0  0  0  0  0
   -0.3564    1.9846    0.0000 N   0  0  0  0  0  0  0  0  0  0  0  0
   -1.3348    2.1910    0.0000 C   0  0  0  0  0  0  0  0  0  0  0  0
   -1.8340    1.3246    0.0000 C   0  0  0  0  0  0  0  0  0  0  0  0
   -1.1638    0.5822    0.0000 S   0  0  0  0  0  0  0  0  0  0  0  0
    1.4836   -1.0080    0.0000 C   0  0  0  0  0  0  0  0  0  0  0  0
    1.4848   -2.0080    0.0000 R   0  0  0  0  0  0  0  0  0  0  0  0
    2.3490   -0.5070    0.0000 O   0  0  0  0  0  0  0  0  0  0  0  0
  1  2  1  0
  2  3  1  0
  2  4  1  0
  4  5  1  6
  5  6  1  0
  6  7  2  0
  7  8  1  0
  8  9  2  0
  9 10  1  0
  4 11  1  0
 11 12  1  0
 11 13  2  0
 10  6  1  0
M  ISO  3   1   1   3   3  12   2
V    1 *
V    3 *
V   12 *
M  END
>  <symbol>  (545) 
D_Thz2Ala

>  <m_Rgroups>  (545) 
[H],[OH],[H],None,None,None

>  <m_abbr>  (545) 
D_Thz2Ala

>  <m_name>  (545) 
D-2-(Thiazolyl)alanine

>  <m_type>  (545) 
aa

>  <m_subtype>  (545) 
modified

>  <m_chem_types>  (545) 
1:backbone_n,2:backbone_c,3:backbone_n_mod

$$$$

     RDKit          2D

 14 14  0  0  0  0  0  0  0  0999 V2000
   -0.1344   -2.2309    0.0000 R   0  0  0  0  0  0  0  0  0  0  0  0
   -0.1304   -1.2309    0.0000 N   0  0  0  0  0  0  0  0  0  0  0  0
   -0.9944   -0.7275    0.0000 R   0  0  0  0  0  0  0  0  0  0  0  0
    0.7378   -0.7345    0.0000 C   0  0  0  0  0  0  0  0  0  0  0  0
    0.7418    0.2655    0.0000 C   0  0  0  0  0  0  0  0  0  0  0  0
   -0.1222    0.7689    0.0000 C   0  0  0  0  0  0  0  0  0  0  0  0
   -1.0376    0.3655    0.0000 C   0  0  0  0  0  0  0  0  0  0  0  0
   -1.7034    1.1115    0.0000 C   0  0  0  0  0  0  0  0  0  0  0  0
   -1.2004    1.9755    0.0000 N   0  0  0  0  0  0  0  0  0  0  0  0
   -1.6034    2.8905    0.0000 R   0  0  0  0  0  0  0  0  0  0  0  0
   -0.2228    1.7637    0.0000 N   0  0  0  0  0  0  0  0  0  0  0  0
    1.6018   -1.2379    0.0000 C   0  0  0  0  0  0  0  0  0  0  0  0
    1.5978   -2.2377    0.0000 R   0  0  0  0  0  0  0  0  0  0  0  0
    2.4698   -0.7415    0.0000 O   0  0  0  0  0  0  0  0  0  0  0  0
  1  2  1  0
  2  3  1  0
  2  4  1  0
  4  5  1  6
  5  6  1  0
  6  7  1  0
  7  8  2  0
  8  9  1  0
  9 10  1  0
  9 11  1  0
  4 12  1  0
 12 13  1  0
 12 14  2  0
 11  6  2  0
M  ISO  4   1   1   3   3  10   4  13   2
V    1 *
V    3 *
V   10 *
V   13 *
M  END
>  <symbol>  (546) 
D_Pyz3Ala

>  <m_Rgroups>  (546) 
[H],[OH],[H],[H],None,None

>  <m_abbr>  (546) 
D_Pyz3Ala

>  <m_name>  (546) 
D-3-(Pyrazolyl)alanine

>  <m_type>  (546) 
aa

>  <m_subtype>  (546) 
modified

>  <m_chem_types>  (546) 
1:backbone_n,2:backbone_c,3:backbone_n_mod,4:aromatic_nh

$$$$

     RDKit          2D

 14 14  0  0  0  0  0  0  0  0999 V2000
   -0.2862   -2.1979    0.0000 R   0  0  0  0  0  0  0  0  0  0  0  0
   -0.2822   -1.1981    0.0000 N   0  0  0  0  0  0  0  0  0  0  0  0
   -1.1462   -0.6947    0.0000 R   0  0  0  0  0  0  0  0  0  0  0  0
    0.5858   -0.7015    0.0000 C   0  0  0  0  0  0  0  0  0  0  0  0
    0.5898    0.2983    0.0000 C   0  0  0  0  0  0  0  0  0  0  0  0
   -0.2740    0.8017    0.0000 C   0  0  0  0  0  0  0  0  0  0  0  0
   -1.1894    0.3985    0.0000 N   0  0  0  0  0  0  0  0  0  0  0  0
   -1.8552    1.1443    0.0000 C   0  0  0  0  0  0  0  0  0  0  0  0
   -1.3522    2.0085    0.0000 C   0  0  0  0  0  0  0  0  0  0  0  0
   -0.3748    1.7965    0.0000 N   0  0  0  0  0  0  0  0  0  0  0  0
    0.3710    2.4629    0.0000 R   0  0  0  0  0  0  0  0  0  0  0  0
    1.4500   -1.2049    0.0000 C   0  0  0  0  0  0  0  0  0  0  0  0
    1.4460   -2.2049    0.0000 R   0  0  0  0  0  0  0  0  0  0  0  0
    2.3180   -0.7085    0.0000 O   0  0  0  0  0  0  0  0  0  0  0  0
  1  2  1  0
  2  3  1  0
  2  4  1  0
  4  5  1  6
  5  6  1  0
  6  7  2  0
  7  8  1  0
  8  9  2  0
  9 10  1  0
 10 11  1  0
  4 12  1  0
 12 13  1  0
 12 14  2  0
 10  6  1  0
M  ISO  4   1   1   3   3  11   4  13   2
V    1 *
V    3 *
V   11 *
V   13 *
M  END
>  <symbol>  (547) 
D_Im2Ala

>  <m_Rgroups>  (547) 
[H],[OH],[H],[H],None,None

>  <m_abbr>  (547) 
D_Im2Ala

>  <m_name>  (547) 
D-2-(Imidazolyl)alanine

>  <m_type>  (547) 
aa

>  <m_subtype>  (547) 
modified

>  <m_chem_types>  (547) 
1:backbone_n,2:backbone_c,3:backbone_n_mod,4:aromatic_nh

$$$$

     RDKit          2D

 30 31  0  0  0  0  0  0  0  0999 V2000
    1.9746   -6.6290    0.0000 R   0  0  0  0  0  0  0  0  0  0  0  0
    1.9766   -5.6290    0.0000 N   0  0  0  0  0  0  0  0  0  0  0  0
    1.1116   -5.1274    0.0000 R   0  0  0  0  0  0  0  0  0  0  0  0
    2.8436   -5.1308    0.0000 C   0  0  0  0  0  0  0  0  0  0  0  0
    2.8456   -4.1308    0.0000 C   0  0  0  0  0  0  0  0  0  0  0  0
    1.9806   -3.6292    0.0000 C   0  0  0  0  0  0  0  0  0  0  0  0
    1.9826   -2.6292    0.0000 C   0  0  0  0  0  0  0  0  0  0  0  0
    1.1176   -2.1274    0.0000 C   0  0  0  0  0  0  0  0  0  0  0  0
    1.1196   -1.1276    0.0000 N   0  0  0  0  0  0  0  0  0  0  0  0
    1.9866   -0.6292    0.0000 R   0  0  0  0  0  0  0  0  0  0  0  0
    0.2548   -0.6258    0.0000 C   0  0  0  0  0  0  0  0  0  0  0  0
   -0.6124   -1.1240    0.0000 O   0  0  0  0  0  0  0  0  0  0  0  0
    0.2568    0.3742    0.0000 C   0  0  0  0  0  0  0  0  0  0  0  0
   -0.6080    0.8760    0.0000 C   0  0  0  0  0  0  0  0  0  0  0  0
   -0.6056    1.8760    0.0000 C   0  0  0  0  0  0  0  0  0  0  0  0
   -1.4704    2.3778    0.0000 C   0  0  0  0  0  0  0  0  0  0  0  0
   -1.4690    3.3788    0.0000 C   0  0  0  0  0  0  0  0  0  0  0  0
   -0.6574    3.9642    0.0000 S   0  0  0  0  0  0  0  0  0  0  0  0
   -0.9662    4.9152    0.0000 C   0  0  0  0  0  0  0  0  0  0  0  0
   -1.9664    4.9182    0.0000 C   0  0  0  0  0  0  0  0  0  0  0  0
   -2.2762    3.9664    0.0000 C   0  0  0  0  0  0  0  0  0  0  0  0
   -3.2764    3.9692    0.0000 N   0  0  0  0  0  0  0  0  0  0  0  0
   -3.8660    3.1604    0.0000 R   0  0  0  0  0  0  0  0  0  0  0  0
   -3.5852    4.9204    0.0000 C   0  0  0  0  0  0  0  0  0  0  0  0
   -4.5348    5.2306    0.0000 O   0  0  0  0  0  0  0  0  0  0  0  0
   -2.7738    5.5060    0.0000 N   0  0  0  0  0  0  0  0  0  0  0  0
   -2.7728    6.5068    0.0000 R   0  0  0  0  0  0  0  0  0  0  0  0
    3.7086   -5.6326    0.0000 C   0  0  0  0  0  0  0  0  0  0  0  0
    3.7066   -6.6326    0.0000 R   0  0  0  0  0  0  0  0  0  0  0  0
    4.5756   -5.1342    0.0000 O   0  0  0  0  0  0  0  0  0  0  0  0
  1  2  1  0
  2  3  1  0
  2  4  1  0
  4  5  1  6
  5  6  1  0
  6  7  1  0
  7  8  1  0
  8  9  1  0
  9 10  1  0
  9 11  1  0
 11 12  2  0
 11 13  1  0
 13 14  1  0
 14 15  1  0
 15 16  1  0
 16 17  1  0
 17 18  1  0
 18 19  1  0
 19 20  1  0
 20 21  1  0
 21 22  1  0
 22 23  1  0
 22 24  1  0
 24 25  2  0
 24 26  1  0
 26 27  1  0
  4 28  1  0
 28 29  1  0
 28 30  2  0
 21 17  1  0
 26 20  1  0
M  ISO  6   1   1   3   3  10   4  23   6  27   5  29   2
V    1 *
V    3 *
V   10 *
V   23 *
V   27 *
V   29 *
M  END
>  <symbol>  (548) 
D_BiotinLys

>  <m_Rgroups>  (548) 
[H],[OH],[H],[H],[H],[H]

>  <m_abbr>  (548) 
D_BiotinLys

>  <m_name>  (548) 
N-epsilon-biotinyl-D-lysine

>  <m_type>  (548) 
aa

>  <m_subtype>  (548) 
modified

>  <m_chem_types>  (548) 
1:backbone_n,2:backbone_c,3:backbone_n_mod,4:amide_nh,5:amide_nh,6:amide_nh

$$$$

     RDKit          2D

 15 14  0  0  0  0  0  0  0  0999 V2000
   -1.7838    2.9702    0.0000 R   0  0  0  0  0  0  0  0  0  0  0  0
   -1.7858    1.9702    0.0000 N   0  0  0  0  0  0  0  0  0  0  0  0
   -2.6528    1.4720    0.0000 R   0  0  0  0  0  0  0  0  0  0  0  0
   -0.9208    1.4684    0.0000 C   0  0  0  0  0  0  0  0  0  0  0  0
   -0.9228    0.4684    0.0000 C   0  0  0  0  0  0  0  0  0  0  0  0
   -0.0578   -0.0332    0.0000 C   0  0  0  0  0  0  0  0  0  0  0  0
   -0.0598   -1.0332    0.0000 C   0  0  0  0  0  0  0  0  0  0  0  0
    0.8052   -1.5350    0.0000 C   0  0  0  0  0  0  0  0  0  0  0  0
    0.8032   -2.5348    0.0000 C   0  0  0  0  0  0  0  0  0  0  0  0
    1.6682   -3.0366    0.0000 N   0  0  0  0  0  0  0  0  0  0  0  0
    1.6660   -4.0366    0.0000 R   0  0  0  0  0  0  0  0  0  0  0  0
    2.5352   -2.5384    0.0000 R   0  0  0  0  0  0  0  0  0  0  0  0
   -0.0538    1.9668    0.0000 C   0  0  0  0  0  0  0  0  0  0  0  0
    0.8112    1.4650    0.0000 R   0  0  0  0  0  0  0  0  0  0  0  0
   -0.0518    2.9668    0.0000 O   0  0  0  0  0  0  0  0  0  0  0  0
  1  2  1  0
  2  3  1  0
  2  4  1  0
  4  5  1  1
  5  6  1  0
  6  7  1  0
  7  8  1  0
  8  9  1  0
  9 10  1  0
 10 11  1  0
 10 12  1  0
  4 13  1  0
 13 14  1  0
 13 15  2  0
M  ISO  5   1   1   3   3  11   4  12   5  14   2
V    1 *
V    3 *
V   11 *
V   12 *
V   14 *
M  END
>  <symbol>  (549) 
D_hLys

>  <m_Rgroups>  (549) 
[H],[OH],[H],[H],[H],None

>  <m_abbr>  (549) 
D_hLys

>  <m_name>  (549) 
D-Homolysine

>  <m_type>  (549) 
aa

>  <m_subtype>  (549) 
modified

>  <m_chem_types>  (549) 
1:backbone_n,2:backbone_c,3:backbone_n_mod,4:amine_primary,5:amine_secondary

$$$$

     RDKit          2D

 16 15  0  0  0  0  0  0  0  0999 V2000
   -1.8335    3.3785    0.0000 R   0  0  0  0  0  0  0  0  0  0  0  0
   -1.8355    2.3785    0.0000 N   0  0  0  0  0  0  0  0  0  0  0  0
   -2.7025    1.8803    0.0000 R   0  0  0  0  0  0  0  0  0  0  0  0
   -0.9705    1.8769    0.0000 C   0  0  0  0  0  0  0  0  0  0  0  0
   -0.9725    0.8769    0.0000 C   0  0  0  0  0  0  0  0  0  0  0  0
   -0.1075    0.3751    0.0000 C   0  0  0  0  0  0  0  0  0  0  0  0
   -0.1095   -0.6247    0.0000 C   0  0  0  0  0  0  0  0  0  0  0  0
    0.7555   -1.1265    0.0000 C   0  0  0  0  0  0  0  0  0  0  0  0
    0.7535   -2.1265    0.0000 C   0  0  0  0  0  0  0  0  0  0  0  0
    1.6185   -2.6281    0.0000 C   0  0  0  0  0  0  0  0  0  0  0  0
    1.6165   -3.6281    0.0000 N   0  0  0  0  0  0  0  0  0  0  0  0
    2.4815   -4.1299    0.0000 R   0  0  0  0  0  0  0  0  0  0  0  0
    0.7495   -4.1265    0.0000 R   0  0  0  0  0  0  0  0  0  0  0  0
   -0.1035    2.3751    0.0000 C   0  0  0  0  0  0  0  0  0  0  0  0
    0.7617    1.8735    0.0000 R   0  0  0  0  0  0  0  0  0  0  0  0
   -0.1013    3.3751    0.0000 O   0  0  0  0  0  0  0  0  0  0  0  0
  1  2  1  0
  2  3  1  0
  2  4  1  0
  4  5  1  1
  5  6  1  0
  6  7  1  0
  7  8  1  0
  8  9  1  0
  9 10  1  0
 10 11  1  0
 11 12  1  0
 11 13  1  0
  4 14  1  0
 14 15  1  0
 14 16  2  0
M  ISO  5   1   1   3   3  12   4  13   5  15   2
V    1 *
V    3 *
V   12 *
V   13 *
V   15 *
M  END
>  <symbol>  (550) 
D_Dao

>  <m_Rgroups>  (550) 
[H],[OH],[H],[H],[H],None

>  <m_abbr>  (550) 
D_Dao

>  <m_name>  (550) 
D-2,8-Diaminooctanoic acid

>  <m_type>  (550) 
aa

>  <m_subtype>  (550) 
modified

>  <m_chem_types>  (550) 
1:backbone_n,2:backbone_c,3:backbone_n_mod,4:amine_primary,5:amine_secondary

$$$$

     RDKit          2D

 17 17  0  0  0  0  0  0  0  0999 V2000
    0.5005    2.4724    0.0000 R   0  0  0  0  0  0  0  0  0  0  0  0
    0.5041    1.4724    0.0000 N   0  0  0  0  0  0  0  0  0  0  0  0
   -0.3601    0.9692    0.0000 R   0  0  0  0  0  0  0  0  0  0  0  0
    1.3719    0.9754    0.0000 C   0  0  0  0  0  0  0  0  0  0  0  0
    1.3755   -0.0246    0.0000 C   0  0  0  0  0  0  0  0  0  0  0  0
    0.5115   -0.5276    0.0000 C   0  0  0  0  0  0  0  0  0  0  0  0
   -0.3565   -0.0306    0.0000 C   0  0  0  0  0  0  0  0  0  0  0  0
   -1.2207   -0.5338    0.0000 C   0  0  0  0  0  0  0  0  0  0  0  0
   -1.2171   -1.5338    0.0000 C   0  0  0  0  0  0  0  0  0  0  0  0
   -2.0813   -2.0368    0.0000 N   0  0  0  0  0  0  0  0  0  0  0  0
   -2.9491   -1.5400    0.0000 N   0  0  0  0  0  0  0  0  0  0  0  0
   -3.8169   -1.0432    0.0000 N   0  0  0  0  0  0  0  0  0  0  0  0
   -0.3493   -2.0308    0.0000 C   0  0  0  0  0  0  0  0  0  0  0  0
    0.5149   -1.5276    0.0000 C   0  0  0  0  0  0  0  0  0  0  0  0
    2.2361    1.4786    0.0000 C   0  0  0  0  0  0  0  0  0  0  0  0
    2.2325    2.4786    0.0000 R   0  0  0  0  0  0  0  0  0  0  0  0
    3.1039    0.9816    0.0000 O   0  0  0  0  0  0  0  0  0  0  0  0
  1  2  1  0
  2  3  1  0
  2  4  1  0
  4  5  1  1
  5  6  1  0
  6  7  1  0
  7  8  2  0
  8  9  1  0
  9 10  1  0
 10 11  2  0
 11 12  2  0
  9 13  2  0
 13 14  1  0
  4 15  1  0
 15 16  1  0
 15 17  2  0
 14  6  2  0
M  CHG  2  11   1  12  -1
M  ISO  3   1   1   3   3  16   2
V    1 *
V    3 *
V   16 *
M  END
>  <symbol>  (551) 
D_Phe_4Az

>  <m_Rgroups>  (551) 
[H],[OH],[H],None,None,None

>  <m_abbr>  (551) 
D_Phe_4Az

>  <m_name>  (551) 
D-para-Azidophenylalanine

>  <m_type>  (551) 
aa

>  <m_subtype>  (551) 
modified

>  <m_chem_types>  (551) 
1:backbone_n,2:backbone_c,3:backbone_n_mod

$$$$

     RDKit          2D

 17 18  0  0  0  0  0  0  0  0999 V2000
    0.2189   -2.6908    0.0000 R   0  0  0  0  0  0  0  0  0  0  0  0
    0.2225   -1.6908    0.0000 N   0  0  0  0  0  0  0  0  0  0  0  0
   -0.6417   -1.1876    0.0000 R   0  0  0  0  0  0  0  0  0  0  0  0
    1.0903   -1.1938    0.0000 C   0  0  0  0  0  0  0  0  0  0  0  0
    1.0939   -0.1940    0.0000 C   0  0  0  0  0  0  0  0  0  0  0  0
    0.2297    0.3092    0.0000 C   0  0  0  0  0  0  0  0  0  0  0  0
   -0.6381   -0.1878    0.0000 C   0  0  0  0  0  0  0  0  0  0  0  0
   -1.5023    0.3154    0.0000 C   0  0  0  0  0  0  0  0  0  0  0  0
   -1.4987    1.3154    0.0000 C   0  0  0  0  0  0  0  0  0  0  0  0
   -0.6309    1.8122    0.0000 C   0  0  0  0  0  0  0  0  0  0  0  0
    0.2333    1.3090    0.0000 C   0  0  0  0  0  0  0  0  0  0  0  0
   -0.8353    2.7912    0.0000 O   0  0  0  0  0  0  0  0  0  0  0  0
   -1.8293    2.8990    0.0000 C   0  0  0  0  0  0  0  0  0  0  0  0
   -2.2395    1.9872    0.0000 O   0  0  0  0  0  0  0  0  0  0  0  0
    1.9545   -1.6970    0.0000 C   0  0  0  0  0  0  0  0  0  0  0  0
    1.9509   -2.6970    0.0000 R   0  0  0  0  0  0  0  0  0  0  0  0
    2.8223   -1.2002    0.0000 O   0  0  0  0  0  0  0  0  0  0  0  0
  1  2  1  0
  2  3  1  0
  2  4  1  0
  4  5  1  1
  5  6  1  0
  6  7  1  0
  7  8  2  0
  8  9  1  0
  9 10  2  0
 10 11  1  0
 10 12  1  0
 12 13  1  0
 13 14  1  0
  4 15  1  0
 15 16  1  0
 15 17  2  0
 11  6  2  0
 14  9  1  0
M  ISO  3   1   1   3   3  16   2
V    1 *
V    3 *
V   16 *
M  END
>  <symbol>  (552) 
PipAla

>  <m_Rgroups>  (552) 
[H],[OH],[H],None,None,None

>  <m_abbr>  (552) 
PipAla

>  <m_name>  (552) 
L-Piperonylalanine (3,4-methylenedioxy-Phe)

>  <m_type>  (552) 
aa

>  <m_subtype>  (552) 
modified

>  <m_chem_types>  (552) 
1:backbone_n,2:backbone_c,3:backbone_n_mod

$$$$

     RDKit          2D

 17 17  0  0  0  0  0  0  0  0999 V2000
    0.3982   -2.5896    0.0000 R   0  0  0  0  0  0  0  0  0  0  0  0
    0.4018   -1.5896    0.0000 N   0  0  0  0  0  0  0  0  0  0  0  0
   -0.4624   -1.0866    0.0000 R   0  0  0  0  0  0  0  0  0  0  0  0
    1.2696   -1.0928    0.0000 C   0  0  0  0  0  0  0  0  0  0  0  0
    1.2732   -0.0928    0.0000 C   0  0  0  0  0  0  0  0  0  0  0  0
    0.4090    0.4102    0.0000 C   0  0  0  0  0  0  0  0  0  0  0  0
   -0.4588   -0.0866    0.0000 C   0  0  0  0  0  0  0  0  0  0  0  0
   -1.3230    0.4166    0.0000 C   0  0  0  0  0  0  0  0  0  0  0  0
   -1.3194    1.4164    0.0000 C   0  0  0  0  0  0  0  0  0  0  0  0
   -2.1836    1.9196    0.0000 N   0  0  0  0  0  0  0  0  0  0  0  0
   -3.0514    1.4226    0.0000 C   0  0  0  0  0  0  0  0  0  0  0  0
   -2.1800    2.9196    0.0000 C   0  0  0  0  0  0  0  0  0  0  0  0
   -0.4516    1.9134    0.0000 C   0  0  0  0  0  0  0  0  0  0  0  0
    0.4126    1.4102    0.0000 C   0  0  0  0  0  0  0  0  0  0  0  0
    2.1338   -1.5958    0.0000 C   0  0  0  0  0  0  0  0  0  0  0  0
    2.1302   -2.5958    0.0000 R   0  0  0  0  0  0  0  0  0  0  0  0
    3.0016   -1.0990    0.0000 O   0  0  0  0  0  0  0  0  0  0  0  0
  1  2  1  0
  2  3  1  0
  2  4  1  0
  4  5  1  1
  5  6  1  0
  6  7  1  0
  7  8  2  0
  8  9  1  0
  9 10  1  0
 10 11  1  0
 10 12  1  0
  9 13  2  0
 13 14  1  0
  4 15  1  0
 15 16  1  0
 15 17  2  0
 14  6  2  0
M  ISO  3   1   1   3   3  16   2
V    1 *
V    3 *
V   16 *
M  END
>  <symbol>  (553) 
Phe_4NMe2

>  <m_Rgroups>  (553) 
[H],[OH],[H],None,None,None

>  <m_abbr>  (553) 
Phe_4NMe2

>  <m_name>  (553) 
L-4-(Dimethylamino)phenylalanine

>  <m_type>  (553) 
aa

>  <m_subtype>  (553) 
modified

>  <m_chem_types>  (553) 
1:backbone_n,2:backbone_c,3:backbone_n_mod

$$$$

     RDKit          2D

 17 17  0  0  0  0  0  0  0  0999 V2000
    0.3982   -2.5896    0.0000 R   0  0  0  0  0  0  0  0  0  0  0  0
    0.4018   -1.5896    0.0000 N   0  0  0  0  0  0  0  0  0  0  0  0
   -0.4624   -1.0866    0.0000 R   0  0  0  0  0  0  0  0  0  0  0  0
    1.2696   -1.0928    0.0000 C   0  0  0  0  0  0  0  0  0  0  0  0
    1.2732   -0.0928    0.0000 C   0  0  0  0  0  0  0  0  0  0  0  0
    0.4090    0.4102    0.0000 C   0  0  0  0  0  0  0  0  0  0  0  0
   -0.4588   -0.0866    0.0000 C   0  0  0  0  0  0  0  0  0  0  0  0
   -1.3230    0.4166    0.0000 C   0  0  0  0  0  0  0  0  0  0  0  0
   -1.3194    1.4164    0.0000 C   0  0  0  0  0  0  0  0  0  0  0  0
   -2.1836    1.9196    0.0000 C   0  0  0  0  0  0  0  0  0  0  0  0
   -3.0514    1.4226    0.0000 C   0  0  0  0  0  0  0  0  0  0  0  0
   -2.1800    2.9196    0.0000 C   0  0  0  0  0  0  0  0  0  0  0  0
   -0.4516    1.9134    0.0000 C   0  0  0  0  0  0  0  0  0  0  0  0
    0.4126    1.4102    0.0000 C   0  0  0  0  0  0  0  0  0  0  0  0
    2.1338   -1.5958    0.0000 C   0  0  0  0  0  0  0  0  0  0  0  0
    2.1302   -2.5958    0.0000 R   0  0  0  0  0  0  0  0  0  0  0  0
    3.0016   -1.0990    0.0000 O   0  0  0  0  0  0  0  0  0  0  0  0
  1  2  1  0
  2  3  1  0
  2  4  1  0
  4  5  1  1
  5  6  1  0
  6  7  1  0
  7  8  2  0
  8  9  1  0
  9 10  1  0
 10 11  1  0
 10 12  1  0
  9 13  2  0
 13 14  1  0
  4 15  1  0
 15 16  1  0
 15 17  2  0
 14  6  2  0
M  ISO  3   1   1   3   3  16   2
V    1 *
V    3 *
V   16 *
M  END
>  <symbol>  (554) 
Phe_4iPr

>  <m_Rgroups>  (554) 
[H],[OH],[H],None,None,None

>  <m_abbr>  (554) 
Phe_4iPr

>  <m_name>  (554) 
L-4-Isopropylphenylalanine

>  <m_type>  (554) 
aa

>  <m_subtype>  (554) 
modified

>  <m_chem_types>  (554) 
1:backbone_n,2:backbone_c,3:backbone_n_mod

$$$$

     RDKit          2D

 18 18  0  0  0  0  0  0  0  0999 V2000
    0.3871   -2.7775    0.0000 R   0  0  0  0  0  0  0  0  0  0  0  0
    0.3863   -1.7775    0.0000 N   0  0  0  0  0  0  0  0  0  0  0  0
   -0.4801   -1.2781    0.0000 R   0  0  0  0  0  0  0  0  0  0  0  0
    1.2519   -1.2767    0.0000 C   0  0  0  0  0  0  0  0  0  0  0  0
    1.2511   -0.2767    0.0000 C   0  0  0  0  0  0  0  0  0  0  0  0
    0.3847    0.2225    0.0000 C   0  0  0  0  0  0  0  0  0  0  0  0
   -0.4809   -0.2781    0.0000 C   0  0  0  0  0  0  0  0  0  0  0  0
   -1.3475    0.2211    0.0000 C   0  0  0  0  0  0  0  0  0  0  0  0
   -1.3483    1.2213    0.0000 C   0  0  0  0  0  0  0  0  0  0  0  0
   -2.2145    1.7205    0.0000 O   0  0  0  0  0  0  0  0  0  0  0  0
   -3.0801    1.2197    0.0000 C   0  0  0  0  0  0  0  0  0  0  0  0
   -0.4825    1.7217    0.0000 C   0  0  0  0  0  0  0  0  0  0  0  0
   -0.4833    2.7219    0.0000 O   0  0  0  0  0  0  0  0  0  0  0  0
   -1.3497    3.2211    0.0000 C   0  0  0  0  0  0  0  0  0  0  0  0
    0.3839    1.2225    0.0000 C   0  0  0  0  0  0  0  0  0  0  0  0
    2.1183   -1.7761    0.0000 C   0  0  0  0  0  0  0  0  0  0  0  0
    2.1191   -2.7761    0.0000 R   0  0  0  0  0  0  0  0  0  0  0  0
    2.9839   -1.2753    0.0000 O   0  0  0  0  0  0  0  0  0  0  0  0
  1  2  1  0
  2  3  1  0
  2  4  1  0
  4  5  1  1
  5  6  1  0
  6  7  1  0
  7  8  2  0
  8  9  1  0
  9 10  1  0
 10 11  1  0
  9 12  2  0
 12 13  1  0
 13 14  1  0
 12 15  1  0
  4 16  1  0
 16 17  1  0
 16 18  2  0
 15  6  2  0
M  ISO  3   1   1   3   3  17   2
V    1 *
V    3 *
V   17 *
M  END
>  <symbol>  (555) 
Phe_34diOMe

>  <m_Rgroups>  (555) 
[H],[OH],[H],None,None,None

>  <m_abbr>  (555) 
Phe_34diOMe

>  <m_name>  (555) 
L-3,4-Dimethoxyphenylalanine

>  <m_type>  (555) 
aa

>  <m_subtype>  (555) 
modified

>  <m_chem_types>  (555) 
1:backbone_n,2:backbone_c,3:backbone_n_mod

$$$$

     RDKit          2D

 16 16  0  0  0  0  0  0  0  0999 V2000
    0.2075   -2.5007    0.0000 R   0  0  0  0  0  0  0  0  0  0  0  0
    0.2111   -1.5007    0.0000 N   0  0  0  0  0  0  0  0  0  0  0  0
   -0.6531   -0.9977    0.0000 R   0  0  0  0  0  0  0  0  0  0  0  0
    1.0789   -1.0039    0.0000 C   0  0  0  0  0  0  0  0  0  0  0  0
    1.0825   -0.0039    0.0000 C   0  0  0  0  0  0  0  0  0  0  0  0
    0.2183    0.4991    0.0000 C   0  0  0  0  0  0  0  0  0  0  0  0
   -0.6495    0.0023    0.0000 C   0  0  0  0  0  0  0  0  0  0  0  0
   -1.5137    0.5055    0.0000 C   0  0  0  0  0  0  0  0  0  0  0  0
   -1.5101    1.5053    0.0000 C   0  0  0  0  0  0  0  0  0  0  0  0
   -2.3743    2.0085    0.0000 S   0  0  0  0  0  0  0  0  0  0  0  0
   -2.3707    3.0085    0.0000 C   0  0  0  0  0  0  0  0  0  0  0  0
   -0.6423    2.0023    0.0000 C   0  0  0  0  0  0  0  0  0  0  0  0
    0.2219    1.4991    0.0000 C   0  0  0  0  0  0  0  0  0  0  0  0
    1.9431   -1.5069    0.0000 C   0  0  0  0  0  0  0  0  0  0  0  0
    1.9395   -2.5069    0.0000 R   0  0  0  0  0  0  0  0  0  0  0  0
    2.8109   -1.0101    0.0000 O   0  0  0  0  0  0  0  0  0  0  0  0
  1  2  1  0
  2  3  1  0
  2  4  1  0
  4  5  1  1
  5  6  1  0
  6  7  1  0
  7  8  2  0
  8  9  1  0
  9 10  1  0
 10 11  1  0
  9 12  2  0
 12 13  1  0
  4 14  1  0
 14 15  1  0
 14 16  2  0
 13  6  2  0
M  ISO  3   1   1   3   3  15   2
V    1 *
V    3 *
V   15 *
M  END
>  <symbol>  (556) 
Phe_4SMe

>  <m_Rgroups>  (556) 
[H],[OH],[H],None,None,None

>  <m_abbr>  (556) 
Phe_4SMe

>  <m_name>  (556) 
L-4-(Methylthio)phenylalanine

>  <m_type>  (556) 
aa

>  <m_subtype>  (556) 
modified

>  <m_chem_types>  (556) 
1:backbone_n,2:backbone_c,3:backbone_n_mod

$$$$

     RDKit          2D

 17 18  0  0  0  0  0  0  0  0999 V2000
    0.2189   -2.6908    0.0000 R   0  0  0  0  0  0  0  0  0  0  0  0
    0.2225   -1.6908    0.0000 N   0  0  0  0  0  0  0  0  0  0  0  0
   -0.6417   -1.1876    0.0000 R   0  0  0  0  0  0  0  0  0  0  0  0
    1.0903   -1.1938    0.0000 C   0  0  0  0  0  0  0  0  0  0  0  0
    1.0939   -0.1940    0.0000 C   0  0  0  0  0  0  0  0  0  0  0  0
    0.2297    0.3092    0.0000 C   0  0  0  0  0  0  0  0  0  0  0  0
   -0.6381   -0.1878    0.0000 C   0  0  0  0  0  0  0  0  0  0  0  0
   -1.5023    0.3154    0.0000 C   0  0  0  0  0  0  0  0  0  0  0  0
   -1.4987    1.3154    0.0000 C   0  0  0  0  0  0  0  0  0  0  0  0
   -0.6309    1.8122    0.0000 C   0  0  0  0  0  0  0  0  0  0  0  0
    0.2333    1.3090    0.0000 C   0  0  0  0  0  0  0  0  0  0  0  0
   -0.8353    2.7912    0.0000 O   0  0  0  0  0  0  0  0  0  0  0  0
   -1.8293    2.8990    0.0000 C   0  0  0  0  0  0  0  0  0  0  0  0
   -2.2395    1.9872    0.0000 O   0  0  0  0  0  0  0  0  0  0  0  0
    1.9545   -1.6970    0.0000 C   0  0  0  0  0  0  0  0  0  0  0  0
    1.9509   -2.6970    0.0000 R   0  0  0  0  0  0  0  0  0  0  0  0
    2.8223   -1.2002    0.0000 O   0  0  0  0  0  0  0  0  0  0  0  0
  1  2  1  0
  2  3  1  0
  2  4  1  0
  4  5  1  6
  5  6  1  0
  6  7  1  0
  7  8  2  0
  8  9  1  0
  9 10  2  0
 10 11  1  0
 10 12  1  0
 12 13  1  0
 13 14  1  0
  4 15  1  0
 15 16  1  0
 15 17  2  0
 11  6  2  0
 14  9  1  0
M  ISO  3   1   1   3   3  16   2
V    1 *
V    3 *
V   16 *
M  END
>  <symbol>  (557) 
D_PipAla

>  <m_Rgroups>  (557) 
[H],[OH],[H],None,None,None

>  <m_abbr>  (557) 
D_PipAla

>  <m_name>  (557) 
D-Piperonylalanine

>  <m_type>  (557) 
aa

>  <m_subtype>  (557) 
modified

>  <m_chem_types>  (557) 
1:backbone_n,2:backbone_c,3:backbone_n_mod

$$$$

     RDKit          2D

 15 15  0  0  0  0  0  0  0  0999 V2000
    0.0494   -2.3001    0.0000 R   0  0  0  0  0  0  0  0  0  0  0  0
    0.0530   -1.3003    0.0000 N   0  0  0  0  0  0  0  0  0  0  0  0
   -0.8112   -0.7971    0.0000 R   0  0  0  0  0  0  0  0  0  0  0  0
    0.9208   -0.8033    0.0000 C   0  0  0  0  0  0  0  0  0  0  0  0
    0.9244    0.1967    0.0000 C   0  0  0  0  0  0  0  0  0  0  0  0
    0.0604    0.6997    0.0000 C   0  0  0  0  0  0  0  0  0  0  0  0
   -0.8076    0.2027    0.0000 C   0  0  0  0  0  0  0  0  0  0  0  0
   -1.6716    0.7059    0.0000 C   0  0  0  0  0  0  0  0  0  0  0  0
   -1.6682    1.7059    0.0000 C   0  0  0  0  0  0  0  0  0  0  0  0
   -2.5324    2.2091    0.0000 Br  0  0  0  0  0  0  0  0  0  0  0  0
   -0.8004    2.2029    0.0000 C   0  0  0  0  0  0  0  0  0  0  0  0
    0.0638    1.6997    0.0000 C   0  0  0  0  0  0  0  0  0  0  0  0
    1.7850   -1.3065    0.0000 C   0  0  0  0  0  0  0  0  0  0  0  0
    1.7814   -2.3063    0.0000 R   0  0  0  0  0  0  0  0  0  0  0  0
    2.6528   -0.8095    0.0000 O   0  0  0  0  0  0  0  0  0  0  0  0
  1  2  1  0
  2  3  1  0
  2  4  1  0
  4  5  1  6
  5  6  1  0
  6  7  1  0
  7  8  2  0
  8  9  1  0
  9 10  1  0
  9 11  2  0
 11 12  1  0
  4 13  1  0
 13 14  1  0
 13 15  2  0
 12  6  2  0
M  ISO  3   1   1   3   3  14   2
V    1 *
V    3 *
V   14 *
M  END
>  <symbol>  (558) 
D_Phe_4Br

>  <m_Rgroups>  (558) 
[H],[OH],[H],None,None,None

>  <m_abbr>  (558) 
D_Phe_4Br

>  <m_name>  (558) 
D-4-Bromophenylalanine

>  <m_type>  (558) 
aa

>  <m_subtype>  (558) 
modified

>  <m_chem_types>  (558) 
1:backbone_n,2:backbone_c,3:backbone_n_mod

$$$$

     RDKit          2D

 15 15  0  0  0  0  0  0  0  0999 V2000
    0.0494   -2.3001    0.0000 R   0  0  0  0  0  0  0  0  0  0  0  0
    0.0530   -1.3003    0.0000 N   0  0  0  0  0  0  0  0  0  0  0  0
   -0.8112   -0.7971    0.0000 R   0  0  0  0  0  0  0  0  0  0  0  0
    0.9208   -0.8033    0.0000 C   0  0  0  0  0  0  0  0  0  0  0  0
    0.9244    0.1967    0.0000 C   0  0  0  0  0  0  0  0  0  0  0  0
    0.0604    0.6997    0.0000 C   0  0  0  0  0  0  0  0  0  0  0  0
   -0.8076    0.2027    0.0000 C   0  0  0  0  0  0  0  0  0  0  0  0
   -1.6716    0.7059    0.0000 C   0  0  0  0  0  0  0  0  0  0  0  0
   -1.6682    1.7059    0.0000 C   0  0  0  0  0  0  0  0  0  0  0  0
   -2.5324    2.2091    0.0000 I   0  0  0  0  0  0  0  0  0  0  0  0
   -0.8004    2.2029    0.0000 C   0  0  0  0  0  0  0  0  0  0  0  0
    0.0638    1.6997    0.0000 C   0  0  0  0  0  0  0  0  0  0  0  0
    1.7850   -1.3065    0.0000 C   0  0  0  0  0  0  0  0  0  0  0  0
    1.7814   -2.3063    0.0000 R   0  0  0  0  0  0  0  0  0  0  0  0
    2.6528   -0.8095    0.0000 O   0  0  0  0  0  0  0  0  0  0  0  0
  1  2  1  0
  2  3  1  0
  2  4  1  0
  4  5  1  6
  5  6  1  0
  6  7  1  0
  7  8  2  0
  8  9  1  0
  9 10  1  0
  9 11  2  0
 11 12  1  0
  4 13  1  0
 13 14  1  0
 13 15  2  0
 12  6  2  0
M  ISO  3   1   1   3   3  14   2
V    1 *
V    3 *
V   14 *
M  END
>  <symbol>  (559) 
D_Phe_4I

>  <m_Rgroups>  (559) 
[H],[OH],[H],None,None,None

>  <m_abbr>  (559) 
D_Phe_4I

>  <m_name>  (559) 
D-4-Iodophenylalanine

>  <m_type>  (559) 
aa

>  <m_subtype>  (559) 
modified

>  <m_chem_types>  (559) 
1:backbone_n,2:backbone_c,3:backbone_n_mod

$$$$

     RDKit          2D

 17 17  0  0  0  0  0  0  0  0999 V2000
    0.3982   -2.5896    0.0000 R   0  0  0  0  0  0  0  0  0  0  0  0
    0.4018   -1.5896    0.0000 N   0  0  0  0  0  0  0  0  0  0  0  0
   -0.4624   -1.0866    0.0000 R   0  0  0  0  0  0  0  0  0  0  0  0
    1.2696   -1.0928    0.0000 C   0  0  0  0  0  0  0  0  0  0  0  0
    1.2732   -0.0928    0.0000 C   0  0  0  0  0  0  0  0  0  0  0  0
    0.4090    0.4102    0.0000 C   0  0  0  0  0  0  0  0  0  0  0  0
   -0.4588   -0.0866    0.0000 C   0  0  0  0  0  0  0  0  0  0  0  0
   -1.3230    0.4166    0.0000 C   0  0  0  0  0  0  0  0  0  0  0  0
   -1.3194    1.4164    0.0000 C   0  0  0  0  0  0  0  0  0  0  0  0
   -2.1836    1.9196    0.0000 N   0  0  0  0  0  0  0  0  0  0  0  0
   -3.0514    1.4226    0.0000 O   0  0  0  0  0  0  0  0  0  0  0  0
   -2.1800    2.9196    0.0000 O   0  0  0  0  0  0  0  0  0  0  0  0
   -0.4516    1.9134    0.0000 C   0  0  0  0  0  0  0  0  0  0  0  0
    0.4126    1.4102    0.0000 C   0  0  0  0  0  0  0  0  0  0  0  0
    2.1338   -1.5958    0.0000 C   0  0  0  0  0  0  0  0  0  0  0  0
    2.1302   -2.5958    0.0000 R   0  0  0  0  0  0  0  0  0  0  0  0
    3.0016   -1.0990    0.0000 O   0  0  0  0  0  0  0  0  0  0  0  0
  1  2  1  0
  2  3  1  0
  2  4  1  0
  4  5  1  6
  5  6  1  0
  6  7  1  0
  7  8  2  0
  8  9  1  0
  9 10  1  0
 10 11  2  0
 10 12  1  0
  9 13  2  0
 13 14  1  0
  4 15  1  0
 15 16  1  0
 15 17  2  0
 14  6  2  0
M  CHG  2  10   1  12  -1
M  ISO  3   1   1   3   3  16   2
V    1 *
V    3 *
V   16 *
M  END
>  <symbol>  (560) 
D_Phe_4NO2

>  <m_Rgroups>  (560) 
[H],[OH],[H],None,None,None

>  <m_abbr>  (560) 
D_Phe_4NO2

>  <m_name>  (560) 
D-4-Nitrophenylalanine

>  <m_type>  (560) 
aa

>  <m_subtype>  (560) 
modified

>  <m_chem_types>  (560) 
1:backbone_n,2:backbone_c,3:backbone_n_mod

$$$$

     RDKit          2D

 17 17  0  0  0  0  0  0  0  0999 V2000
    0.3982   -2.5896    0.0000 R   0  0  0  0  0  0  0  0  0  0  0  0
    0.4018   -1.5896    0.0000 N   0  0  0  0  0  0  0  0  0  0  0  0
   -0.4624   -1.0866    0.0000 R   0  0  0  0  0  0  0  0  0  0  0  0
    1.2696   -1.0928    0.0000 C   0  0  0  0  0  0  0  0  0  0  0  0
    1.2732   -0.0928    0.0000 C   0  0  0  0  0  0  0  0  0  0  0  0
    0.4090    0.4102    0.0000 C   0  0  0  0  0  0  0  0  0  0  0  0
   -0.4588   -0.0866    0.0000 C   0  0  0  0  0  0  0  0  0  0  0  0
   -1.3230    0.4166    0.0000 C   0  0  0  0  0  0  0  0  0  0  0  0
   -1.3194    1.4164    0.0000 C   0  0  0  0  0  0  0  0  0  0  0  0
   -2.1836    1.9196    0.0000 N   0  0  0  0  0  0  0  0  0  0  0  0
   -3.0514    1.4226    0.0000 R   0  0  0  0  0  0  0  0  0  0  0  0
   -2.1800    2.9196    0.0000 R   0  0  0  0  0  0  0  0  0  0  0  0
   -0.4516    1.9134    0.0000 C   0  0  0  0  0  0  0  0  0  0  0  0
    0.4126    1.4102    0.0000 C   0  0  0  0  0  0  0  0  0  0  0  0
    2.1338   -1.5958    0.0000 C   0  0  0  0  0  0  0  0  0  0  0  0
    2.1302   -2.5958    0.0000 R   0  0  0  0  0  0  0  0  0  0  0  0
    3.0016   -1.0990    0.0000 O   0  0  0  0  0  0  0  0  0  0  0  0
  1  2  1  0
  2  3  1  0
  2  4  1  0
  4  5  1  6
  5  6  1  0
  6  7  1  0
  7  8  2  0
  8  9  1  0
  9 10  1  0
 10 11  1  0
 10 12  1  0
  9 13  2  0
 13 14  1  0
  4 15  1  0
 15 16  1  0
 15 17  2  0
 14  6  2  0
M  ISO  5   1   1   3   3  11   4  12   5  16   2
V    1 *
V    3 *
V   11 *
V   12 *
V   16 *
M  END
>  <symbol>  (561) 
D_Phe_4NH2

>  <m_Rgroups>  (561) 
[H],[OH],[H],[H],[H],None

>  <m_abbr>  (561) 
D_Phe_4NH2

>  <m_name>  (561) 
D-4-Aminophenylalanine

>  <m_type>  (561) 
aa

>  <m_subtype>  (561) 
modified

>  <m_chem_types>  (561) 
1:backbone_n,2:backbone_c,3:backbone_n_mod,4:amine_primary,5:amine_secondary

$$$$

     RDKit          2D

 17 17  0  0  0  0  0  0  0  0999 V2000
    0.3982   -2.5896    0.0000 R   0  0  0  0  0  0  0  0  0  0  0  0
    0.4018   -1.5896    0.0000 N   0  0  0  0  0  0  0  0  0  0  0  0
   -0.4624   -1.0866    0.0000 R   0  0  0  0  0  0  0  0  0  0  0  0
    1.2696   -1.0928    0.0000 C   0  0  0  0  0  0  0  0  0  0  0  0
    1.2732   -0.0928    0.0000 C   0  0  0  0  0  0  0  0  0  0  0  0
    0.4090    0.4102    0.0000 C   0  0  0  0  0  0  0  0  0  0  0  0
   -0.4588   -0.0866    0.0000 C   0  0  0  0  0  0  0  0  0  0  0  0
   -1.3230    0.4166    0.0000 C   0  0  0  0  0  0  0  0  0  0  0  0
   -1.3194    1.4164    0.0000 C   0  0  0  0  0  0  0  0  0  0  0  0
   -2.1836    1.9196    0.0000 N   0  0  0  0  0  0  0  0  0  0  0  0
   -3.0514    1.4226    0.0000 C   0  0  0  0  0  0  0  0  0  0  0  0
   -2.1800    2.9196    0.0000 C   0  0  0  0  0  0  0  0  0  0  0  0
   -0.4516    1.9134    0.0000 C   0  0  0  0  0  0  0  0  0  0  0  0
    0.4126    1.4102    0.0000 C   0  0  0  0  0  0  0  0  0  0  0  0
    2.1338   -1.5958    0.0000 C   0  0  0  0  0  0  0  0  0  0  0  0
    2.1302   -2.5958    0.0000 R   0  0  0  0  0  0  0  0  0  0  0  0
    3.0016   -1.0990    0.0000 O   0  0  0  0  0  0  0  0  0  0  0  0
  1  2  1  0
  2  3  1  0
  2  4  1  0
  4  5  1  6
  5  6  1  0
  6  7  1  0
  7  8  2  0
  8  9  1  0
  9 10  1  0
 10 11  1  0
 10 12  1  0
  9 13  2  0
 13 14  1  0
  4 15  1  0
 15 16  1  0
 15 17  2  0
 14  6  2  0
M  ISO  3   1   1   3   3  16   2
V    1 *
V    3 *
V   16 *
M  END
>  <symbol>  (562) 
D_Phe_4NMe2

>  <m_Rgroups>  (562) 
[H],[OH],[H],None,None,None

>  <m_abbr>  (562) 
D_Phe_4NMe2

>  <m_name>  (562) 
D-4-(Dimethylamino)phenylalanine

>  <m_type>  (562) 
aa

>  <m_subtype>  (562) 
modified

>  <m_chem_types>  (562) 
1:backbone_n,2:backbone_c,3:backbone_n_mod

$$$$

     RDKit          2D

 16 16  0  0  0  0  0  0  0  0999 V2000
    0.2075   -2.5007    0.0000 R   0  0  0  0  0  0  0  0  0  0  0  0
    0.2111   -1.5007    0.0000 N   0  0  0  0  0  0  0  0  0  0  0  0
   -0.6531   -0.9977    0.0000 R   0  0  0  0  0  0  0  0  0  0  0  0
    1.0789   -1.0039    0.0000 C   0  0  0  0  0  0  0  0  0  0  0  0
    1.0825   -0.0039    0.0000 C   0  0  0  0  0  0  0  0  0  0  0  0
    0.2183    0.4991    0.0000 C   0  0  0  0  0  0  0  0  0  0  0  0
   -0.6495    0.0023    0.0000 C   0  0  0  0  0  0  0  0  0  0  0  0
   -1.5137    0.5055    0.0000 C   0  0  0  0  0  0  0  0  0  0  0  0
   -1.5101    1.5053    0.0000 C   0  0  0  0  0  0  0  0  0  0  0  0
   -2.3743    2.0085    0.0000 S   0  0  0  0  0  0  0  0  0  0  0  0
   -2.3707    3.0085    0.0000 C   0  0  0  0  0  0  0  0  0  0  0  0
   -0.6423    2.0023    0.0000 C   0  0  0  0  0  0  0  0  0  0  0  0
    0.2219    1.4991    0.0000 C   0  0  0  0  0  0  0  0  0  0  0  0
    1.9431   -1.5069    0.0000 C   0  0  0  0  0  0  0  0  0  0  0  0
    1.9395   -2.5069    0.0000 R   0  0  0  0  0  0  0  0  0  0  0  0
    2.8109   -1.0101    0.0000 O   0  0  0  0  0  0  0  0  0  0  0  0
  1  2  1  0
  2  3  1  0
  2  4  1  0
  4  5  1  6
  5  6  1  0
  6  7  1  0
  7  8  2  0
  8  9  1  0
  9 10  1  0
 10 11  1  0
  9 12  2  0
 12 13  1  0
  4 14  1  0
 14 15  1  0
 14 16  2  0
 13  6  2  0
M  ISO  3   1   1   3   3  15   2
V    1 *
V    3 *
V   15 *
M  END
>  <symbol>  (563) 
D_Phe_4SMe

>  <m_Rgroups>  (563) 
[H],[OH],[H],None,None,None

>  <m_abbr>  (563) 
D_Phe_4SMe

>  <m_name>  (563) 
D-4-(Methylthio)phenylalanine

>  <m_type>  (563) 
aa

>  <m_subtype>  (563) 
modified

>  <m_chem_types>  (563) 
1:backbone_n,2:backbone_c,3:backbone_n_mod

$$$$

     RDKit          2D

 18 19  0  0  0  0  0  0  0  0999 V2000
    0.3380   -2.6916    0.0000 R   0  0  0  0  0  0  0  0  0  0  0  0
    0.3352   -1.6916    0.0000 N   0  0  0  0  0  0  0  0  0  0  0  0
   -0.5324   -1.1940    0.0000 R   0  0  0  0  0  0  0  0  0  0  0  0
    1.1998   -1.1892    0.0000 C   0  0  0  0  0  0  0  0  0  0  0  0
    1.1970   -0.1892    0.0000 C   0  0  0  0  0  0  0  0  0  0  0  0
    0.3294    0.3084    0.0000 C   0  0  0  0  0  0  0  0  0  0  0  0
   -0.5828   -0.1010    0.0000 N   0  0  0  0  0  0  0  0  0  0  0  0
   -1.2542    0.6404    0.0000 C   0  0  0  0  0  0  0  0  0  0  0  0
   -2.2540    0.6376    0.0000 C   0  0  0  0  0  0  0  0  0  0  0  0
   -2.7566    1.5022    0.0000 C   0  0  0  0  0  0  0  0  0  0  0  0
   -2.2590    2.3696    0.0000 C   0  0  0  0  0  0  0  0  0  0  0  0
   -1.2590    2.3722    0.0000 C   0  0  0  0  0  0  0  0  0  0  0  0
   -0.7566    1.5078    0.0000 C   0  0  0  0  0  0  0  0  0  0  0  0
    0.2224    1.3026    0.0000 N   0  0  0  0  0  0  0  0  0  0  0  0
    0.9634    1.9738    0.0000 R   0  0  0  0  0  0  0  0  0  0  0  0
    2.0672   -1.6868    0.0000 C   0  0  0  0  0  0  0  0  0  0  0  0
    2.0700   -2.6868    0.0000 R   0  0  0  0  0  0  0  0  0  0  0  0
    2.9318   -1.1844    0.0000 O   0  0  0  0  0  0  0  0  0  0  0  0
  1  2  1  0
  2  3  1  0
  2  4  1  0
  4  5  1  1
  5  6  1  0
  6  7  2  0
  7  8  1  0
  8  9  2  0
  9 10  1  0
 10 11  2  0
 11 12  1  0
 12 13  2  0
 13 14  1  0
 14 15  1  0
  4 16  1  0
 16 17  1  0
 16 18  2  0
 14  6  1  0
 13  8  1  0
M  ISO  4   1   1   3   3  15   4  17   2
V    1 *
V    3 *
V   15 *
V   17 *
M  END
>  <symbol>  (564) 
BimAla

>  <m_Rgroups>  (564) 
[H],[OH],[H],[H],None,None

>  <m_abbr>  (564) 
BimAla

>  <m_name>  (564) 
L-Benzimidazol-2-yl-alanine

>  <m_type>  (564) 
aa

>  <m_subtype>  (564) 
modified

>  <m_chem_types>  (564) 
1:backbone_n,2:backbone_c,3:backbone_n_mod,4:aromatic_nh

$$$$

     RDKit          2D

 18 19  0  0  0  0  0  0  0  0999 V2000
    0.5793   -2.4441    0.0000 R   0  0  0  0  0  0  0  0  0  0  0  0
    0.5785   -1.4441    0.0000 N   0  0  0  0  0  0  0  0  0  0  0  0
   -0.2879   -0.9447    0.0000 R   0  0  0  0  0  0  0  0  0  0  0  0
    1.4441   -0.9433    0.0000 C   0  0  0  0  0  0  0  0  0  0  0  0
    1.4433    0.0567    0.0000 C   0  0  0  0  0  0  0  0  0  0  0  0
    0.5771    0.5559    0.0000 C   0  0  0  0  0  0  0  0  0  0  0  0
    0.5763    1.5561    0.0000 C   0  0  0  0  0  0  0  0  0  0  0  0
   -0.2903    2.0553    0.0000 C   0  0  0  0  0  0  0  0  0  0  0  0
   -1.1559    1.5547    0.0000 C   0  0  0  0  0  0  0  0  0  0  0  0
   -2.0223    2.0539    0.0000 C   0  0  0  0  0  0  0  0  0  0  0  0
   -2.8879    1.5533    0.0000 C   0  0  0  0  0  0  0  0  0  0  0  0
   -2.8871    0.5531    0.0000 C   0  0  0  0  0  0  0  0  0  0  0  0
   -2.0207    0.0539    0.0000 C   0  0  0  0  0  0  0  0  0  0  0  0
   -1.1551    0.5545    0.0000 C   0  0  0  0  0  0  0  0  0  0  0  0
   -0.2887    0.0553    0.0000 N   0  0  0  0  0  0  0  0  0  0  0  0
    2.3105   -1.4427    0.0000 C   0  0  0  0  0  0  0  0  0  0  0  0
    2.3113   -2.4427    0.0000 R   0  0  0  0  0  0  0  0  0  0  0  0
    3.1761   -0.9419    0.0000 O   0  0  0  0  0  0  0  0  0  0  0  0
  1  2  1  0
  2  3  1  0
  2  4  1  0
  4  5  1  1
  5  6  1  0
  6  7  1  0
  7  8  2  0
  8  9  1  0
  9 10  2  0
 10 11  1  0
 11 12  2  0
 12 13  1  0
 13 14  2  0
 14 15  1  0
  4 16  1  0
 16 17  1  0
 16 18  2  0
 15  6  2  0
 14  9  1  0
M  ISO  3   1   1   3   3  17   2
V    1 *
V    3 *
V   17 *
M  END
>  <symbol>  (565) 
QuiAla

>  <m_Rgroups>  (565) 
[H],[OH],[H],None,None,None

>  <m_abbr>  (565) 
QuiAla

>  <m_name>  (565) 
L-Quinolin-2-yl-alanine

>  <m_type>  (565) 
aa

>  <m_subtype>  (565) 
modified

>  <m_chem_types>  (565) 
1:backbone_n,2:backbone_c,3:backbone_n_mod

$$$$

     RDKit          2D

 18 19  0  0  0  0  0  0  0  0999 V2000
   -1.5934   -2.8579    0.0000 R   0  0  0  0  0  0  0  0  0  0  0  0
   -1.5914   -1.8579    0.0000 N   0  0  0  0  0  0  0  0  0  0  0  0
   -2.4564   -1.3561    0.0000 R   0  0  0  0  0  0  0  0  0  0  0  0
   -0.7244   -1.3597    0.0000 C   0  0  0  0  0  0  0  0  0  0  0  0
   -0.7224   -0.3597    0.0000 C   0  0  0  0  0  0  0  0  0  0  0  0
    0.1448    0.1387    0.0000 C   0  0  0  0  0  0  0  0  0  0  0  0
    1.0096   -0.3631    0.0000 N   0  0  0  0  0  0  0  0  0  0  0  0
    1.8768    0.1351    0.0000 C   0  0  0  0  0  0  0  0  0  0  0  0
    1.8786    1.1351    0.0000 C   0  0  0  0  0  0  0  0  0  0  0  0
    1.0138    1.6369    0.0000 C   0  0  0  0  0  0  0  0  0  0  0  0
    1.0156    2.6367    0.0000 C   0  0  0  0  0  0  0  0  0  0  0  0
    0.1508    3.1387    0.0000 C   0  0  0  0  0  0  0  0  0  0  0  0
   -0.7164    2.6403    0.0000 C   0  0  0  0  0  0  0  0  0  0  0  0
   -0.7182    1.6403    0.0000 C   0  0  0  0  0  0  0  0  0  0  0  0
    0.1466    1.1385    0.0000 C   0  0  0  0  0  0  0  0  0  0  0  0
    0.1406   -1.8613    0.0000 C   0  0  0  0  0  0  0  0  0  0  0  0
    0.1386   -2.8613    0.0000 R   0  0  0  0  0  0  0  0  0  0  0  0
    1.0076   -1.3631    0.0000 O   0  0  0  0  0  0  0  0  0  0  0  0
  1  2  1  0
  2  3  1  0
  2  4  1  0
  4  5  1  1
  5  6  1  0
  6  7  2  0
  7  8  1  0
  8  9  2  0
  9 10  1  0
 10 11  2  0
 11 12  1  0
 12 13  2  0
 13 14  1  0
 14 15  2  0
  4 16  1  0
 16 17  1  0
 16 18  2  0
 15  6  1  0
 15 10  1  0
M  ISO  3   1   1   3   3  17   2
V    1 *
V    3 *
V   17 *
M  END
>  <symbol>  (566) 
IsoQuiAla

>  <m_Rgroups>  (566) 
[H],[OH],[H],None,None,None

>  <m_abbr>  (566) 
IsoQuiAla

>  <m_name>  (566) 
L-Isoquinolin-1-yl-alanine

>  <m_type>  (566) 
aa

>  <m_subtype>  (566) 
modified

>  <m_chem_types>  (566) 
1:backbone_n,2:backbone_c,3:backbone_n_mod

$$$$

     RDKit          2D

 13 13  0  0  0  0  0  0  0  0999 V2000
   -0.2470   -2.0100    0.0000 R   0  0  0  0  0  0  0  0  0  0  0  0
   -0.2484   -1.0100    0.0000 N   0  0  0  0  0  0  0  0  0  0  0  0
   -1.1150   -0.5110    0.0000 R   0  0  0  0  0  0  0  0  0  0  0  0
    0.6170   -0.5090    0.0000 C   0  0  0  0  0  0  0  0  0  0  0  0
    0.6158    0.4910    0.0000 C   0  0  0  0  0  0  0  0  0  0  0  0
   -0.2508    0.9898    0.0000 C   0  0  0  0  0  0  0  0  0  0  0  0
   -1.1638    0.5822    0.0000 C   0  0  0  0  0  0  0  0  0  0  0  0
   -1.8340    1.3246    0.0000 C   0  0  0  0  0  0  0  0  0  0  0  0
   -1.3348    2.1910    0.0000 S   0  0  0  0  0  0  0  0  0  0  0  0
   -0.3564    1.9846    0.0000 C   0  0  0  0  0  0  0  0  0  0  0  0
    1.4836   -1.0080    0.0000 C   0  0  0  0  0  0  0  0  0  0  0  0
    1.4848   -2.0080    0.0000 R   0  0  0  0  0  0  0  0  0  0  0  0
    2.3490   -0.5070    0.0000 O   0  0  0  0  0  0  0  0  0  0  0  0
  1  2  1  0
  2  3  1  0
  2  4  1  0
  4  5  1  1
  5  6  1  0
  6  7  1  0
  7  8  2  0
  8  9  1  0
  9 10  1  0
  4 11  1  0
 11 12  1  0
 11 13  2  0
 10  6  2  0
M  ISO  3   1   1   3   3  12   2
V    1 *
V    3 *
V   12 *
M  END
>  <symbol>  (567) 
Thi3Ala

>  <m_Rgroups>  (567) 
[H],[OH],[H],None,None,None

>  <m_abbr>  (567) 
Thi3Ala

>  <m_name>  (567) 
L-Thiophen-3-yl-alanine

>  <m_type>  (567) 
aa

>  <m_subtype>  (567) 
modified

>  <m_chem_types>  (567) 
1:backbone_n,2:backbone_c,3:backbone_n_mod

$$$$

     RDKit          2D

 18 19  0  0  0  0  0  0  0  0999 V2000
    0.3180   -2.2625    0.0000 R   0  0  0  0  0  0  0  0  0  0  0  0
    0.3156   -1.2799    0.0000 N   0  0  0  0  0  0  0  0  0  0  0  0
   -0.4596   -0.8337    0.0000 R   0  0  0  0  0  0  0  0  0  0  0  0
    1.1390   -0.7773    0.0000 C   0  0  0  0  0  0  0  0  0  0  0  0
    1.1438    0.2643    0.0000 C   0  0  0  0  0  0  0  0  0  0  0  0
    0.2700    0.8351    0.0000 C   0  0  0  0  0  0  0  0  0  0  0  0
   -0.6678    0.4881    0.0000 C   0  0  0  0  0  0  0  0  0  0  0  0
   -1.0378   -0.4449    0.0000 C   0  0  0  0  0  0  0  0  0  0  0  0
   -2.0266   -0.5875    0.0000 C   0  0  0  0  0  0  0  0  0  0  0  0
   -2.6476    0.1961    0.0000 C   0  0  0  0  0  0  0  0  0  0  0  0
   -2.2760    1.1257    0.0000 C   0  0  0  0  0  0  0  0  0  0  0  0
   -1.2896    1.2709    0.0000 C   0  0  0  0  0  0  0  0  0  0  0  0
   -0.7348    2.1037    0.0000 N   0  0  0  0  0  0  0  0  0  0  0  0
    0.2274    1.8349    0.0000 N   0  0  0  0  0  0  0  0  0  0  0  0
    1.0124    2.4555    0.0000 R   0  0  0  0  0  0  0  0  0  0  0  0
    1.9630   -1.2833    0.0000 C   0  0  0  0  0  0  0  0  0  0  0  0
    1.9150   -2.2829    0.0000 R   0  0  0  0  0  0  0  0  0  0  0  0
    2.8356   -0.8215    0.0000 O   0  0  0  0  0  0  0  0  0  0  0  0
  1  2  1  0
  2  3  1  0
  2  4  1  0
  4  5  1  1
  5  6  1  0
  6  7  2  0
  7  8  1  0
  8  9  2  0
  9 10  1  0
 10 11  2  0
 11 12  1  0
 12 13  2  0
 13 14  1  0
 14 15  1  0
  4 16  1  0
 16 17  1  0
 16 18  2  0
 14  6  1  0
 12  7  1  0
M  ISO  4   1   1   3   3  15   4  17   2
V    1 *
V    3 *
V   15 *
V   17 *
M  END
>  <symbol>  (568) 
IndAzAla

>  <m_Rgroups>  (568) 
[H],[OH],[H],[H],None,None

>  <m_abbr>  (568) 
IndAzAla

>  <m_name>  (568) 
L-Indazol-3-yl-alanine

>  <m_type>  (568) 
aa

>  <m_subtype>  (568) 
modified

>  <m_chem_types>  (568) 
1:backbone_n,2:backbone_c,3:backbone_n_mod,4:aromatic_nh

$$$$

     RDKit          2D

 13 13  0  0  0  0  0  0  0  0999 V2000
   -0.2470   -2.0100    0.0000 R   0  0  0  0  0  0  0  0  0  0  0  0
   -0.2484   -1.0100    0.0000 N   0  0  0  0  0  0  0  0  0  0  0  0
   -1.1150   -0.5110    0.0000 R   0  0  0  0  0  0  0  0  0  0  0  0
    0.6170   -0.5090    0.0000 C   0  0  0  0  0  0  0  0  0  0  0  0
    0.6158    0.4910    0.0000 C   0  0  0  0  0  0  0  0  0  0  0  0
   -0.2508    0.9898    0.0000 N   0  0  0  0  0  0  0  0  0  0  0  0
   -1.1638    0.5822    0.0000 C   0  0  0  0  0  0  0  0  0  0  0  0
   -1.8340    1.3246    0.0000 C   0  0  0  0  0  0  0  0  0  0  0  0
   -1.3348    2.1910    0.0000 C   0  0  0  0  0  0  0  0  0  0  0  0
   -0.3564    1.9846    0.0000 C   0  0  0  0  0  0  0  0  0  0  0  0
    1.4836   -1.0080    0.0000 C   0  0  0  0  0  0  0  0  0  0  0  0
    1.4848   -2.0080    0.0000 R   0  0  0  0  0  0  0  0  0  0  0  0
    2.3490   -0.5070    0.0000 O   0  0  0  0  0  0  0  0  0  0  0  0
  1  2  1  0
  2  3  1  0
  2  4  1  0
  4  5  1  1
  5  6  1  0
  6  7  1  0
  7  8  2  0
  8  9  1  0
  9 10  2  0
  4 11  1  0
 11 12  1  0
 11 13  2  0
 10  6  1  0
M  ISO  3   1   1   3   3  12   2
V    1 *
V    3 *
V   12 *
M  END
>  <symbol>  (569) 
Pyr1Ala

>  <m_Rgroups>  (569) 
[H],[OH],[H],None,None,None

>  <m_abbr>  (569) 
Pyr1Ala

>  <m_name>  (569) 
L-Pyrrol-1-yl-alanine (N-linked)

>  <m_type>  (569) 
aa

>  <m_subtype>  (569) 
modified

>  <m_chem_types>  (569) 
1:backbone_n,2:backbone_c,3:backbone_n_mod

$$$$

     RDKit          2D

 13 13  0  0  0  0  0  0  0  0999 V2000
   -0.2470   -2.0100    0.0000 R   0  0  0  0  0  0  0  0  0  0  0  0
   -0.2484   -1.0100    0.0000 N   0  0  0  0  0  0  0  0  0  0  0  0
   -1.1150   -0.5110    0.0000 R   0  0  0  0  0  0  0  0  0  0  0  0
    0.6170   -0.5090    0.0000 C   0  0  0  0  0  0  0  0  0  0  0  0
    0.6158    0.4910    0.0000 C   0  0  0  0  0  0  0  0  0  0  0  0
   -0.2508    0.9898    0.0000 N   0  0  0  0  0  0  0  0  0  0  0  0
   -0.3564    1.9846    0.0000 C   0  0  0  0  0  0  0  0  0  0  0  0
   -1.3348    2.1910    0.0000 C   0  0  0  0  0  0  0  0  0  0  0  0
   -1.8340    1.3246    0.0000 N   0  0  0  0  0  0  0  0  0  0  0  0
   -1.1638    0.5822    0.0000 N   0  0  0  0  0  0  0  0  0  0  0  0
    1.4836   -1.0080    0.0000 C   0  0  0  0  0  0  0  0  0  0  0  0
    1.4848   -2.0080    0.0000 R   0  0  0  0  0  0  0  0  0  0  0  0
    2.3490   -0.5070    0.0000 O   0  0  0  0  0  0  0  0  0  0  0  0
  1  2  1  0
  2  3  1  0
  2  4  1  0
  4  5  1  1
  5  6  1  0
  6  7  1  0
  7  8  2  0
  8  9  1  0
  9 10  2  0
  4 11  1  0
 11 12  1  0
 11 13  2  0
 10  6  1  0
M  ISO  3   1   1   3   3  12   2
V    1 *
V    3 *
V   12 *
M  END
>  <symbol>  (570) 
TriazAla

>  <m_Rgroups>  (570) 
[H],[OH],[H],None,None,None

>  <m_abbr>  (570) 
TriazAla

>  <m_name>  (570) 
L-1,2,3-Triazol-1-yl-alanine

>  <m_type>  (570) 
aa

>  <m_subtype>  (570) 
modified

>  <m_chem_types>  (570) 
1:backbone_n,2:backbone_c,3:backbone_n_mod

$$$$

     RDKit          2D

 17 18  0  0  0  0  0  0  0  0999 V2000
    0.3946   -2.5754    0.0000 R   0  0  0  0  0  0  0  0  0  0  0  0
    0.3918   -1.5754    0.0000 N   0  0  0  0  0  0  0  0  0  0  0  0
   -0.4756   -1.0780    0.0000 R   0  0  0  0  0  0  0  0  0  0  0  0
    1.2564   -1.0730    0.0000 C   0  0  0  0  0  0  0  0  0  0  0  0
    1.2536   -0.0732    0.0000 C   0  0  0  0  0  0  0  0  0  0  0  0
    0.3860    0.4246    0.0000 C   0  0  0  0  0  0  0  0  0  0  0  0
   -0.5260    0.0150    0.0000 N   0  0  0  0  0  0  0  0  0  0  0  0
   -1.1974    0.7564    0.0000 C   0  0  0  0  0  0  0  0  0  0  0  0
   -2.1972    0.7536    0.0000 C   0  0  0  0  0  0  0  0  0  0  0  0
   -2.6998    1.6182    0.0000 C   0  0  0  0  0  0  0  0  0  0  0  0
   -2.2022    2.4856    0.0000 C   0  0  0  0  0  0  0  0  0  0  0  0
   -1.2022    2.4884    0.0000 C   0  0  0  0  0  0  0  0  0  0  0  0
   -0.6998    1.6238    0.0000 C   0  0  0  0  0  0  0  0  0  0  0  0
    0.2792    1.4188    0.0000 O   0  0  0  0  0  0  0  0  0  0  0  0
    2.1240   -1.5706    0.0000 C   0  0  0  0  0  0  0  0  0  0  0  0
    2.1268   -2.5706    0.0000 R   0  0  0  0  0  0  0  0  0  0  0  0
    2.9886   -1.0682    0.0000 O   0  0  0  0  0  0  0  0  0  0  0  0
  1  2  1  0
  2  3  1  0
  2  4  1  0
  4  5  1  1
  5  6  1  0
  6  7  2  0
  7  8  1  0
  8  9  2  0
  9 10  1  0
 10 11  2  0
 11 12  1  0
 12 13  2  0
 13 14  1  0
  4 15  1  0
 15 16  1  0
 15 17  2  0
 14  6  1  0
 13  8  1  0
M  ISO  3   1   1   3   3  16   2
V    1 *
V    3 *
V   16 *
M  END
>  <symbol>  (571) 
BenzoxAla

>  <m_Rgroups>  (571) 
[H],[OH],[H],None,None,None

>  <m_abbr>  (571) 
BenzoxAla

>  <m_name>  (571) 
L-Benzoxazol-2-yl-alanine

>  <m_type>  (571) 
aa

>  <m_subtype>  (571) 
modified

>  <m_chem_types>  (571) 
1:backbone_n,2:backbone_c,3:backbone_n_mod

$$$$

     RDKit          2D

 18 19  0  0  0  0  0  0  0  0999 V2000
    0.3380   -2.6916    0.0000 R   0  0  0  0  0  0  0  0  0  0  0  0
    0.3352   -1.6916    0.0000 N   0  0  0  0  0  0  0  0  0  0  0  0
   -0.5324   -1.1940    0.0000 R   0  0  0  0  0  0  0  0  0  0  0  0
    1.1998   -1.1892    0.0000 C   0  0  0  0  0  0  0  0  0  0  0  0
    1.1970   -0.1892    0.0000 C   0  0  0  0  0  0  0  0  0  0  0  0
    0.3294    0.3084    0.0000 C   0  0  0  0  0  0  0  0  0  0  0  0
   -0.5828   -0.1010    0.0000 N   0  0  0  0  0  0  0  0  0  0  0  0
   -1.2542    0.6404    0.0000 C   0  0  0  0  0  0  0  0  0  0  0  0
   -2.2540    0.6376    0.0000 C   0  0  0  0  0  0  0  0  0  0  0  0
   -2.7566    1.5022    0.0000 C   0  0  0  0  0  0  0  0  0  0  0  0
   -2.2590    2.3696    0.0000 C   0  0  0  0  0  0  0  0  0  0  0  0
   -1.2590    2.3722    0.0000 C   0  0  0  0  0  0  0  0  0  0  0  0
   -0.7566    1.5078    0.0000 C   0  0  0  0  0  0  0  0  0  0  0  0
    0.2224    1.3026    0.0000 N   0  0  0  0  0  0  0  0  0  0  0  0
    0.9634    1.9738    0.0000 R   0  0  0  0  0  0  0  0  0  0  0  0
    2.0672   -1.6868    0.0000 C   0  0  0  0  0  0  0  0  0  0  0  0
    2.0700   -2.6868    0.0000 R   0  0  0  0  0  0  0  0  0  0  0  0
    2.9318   -1.1844    0.0000 O   0  0  0  0  0  0  0  0  0  0  0  0
  1  2  1  0
  2  3  1  0
  2  4  1  0
  4  5  1  6
  5  6  1  0
  6  7  2  0
  7  8  1  0
  8  9  2  0
  9 10  1  0
 10 11  2  0
 11 12  1  0
 12 13  2  0
 13 14  1  0
 14 15  1  0
  4 16  1  0
 16 17  1  0
 16 18  2  0
 14  6  1  0
 13  8  1  0
M  ISO  4   1   1   3   3  15   4  17   2
V    1 *
V    3 *
V   15 *
V   17 *
M  END
>  <symbol>  (572) 
D_BimAla

>  <m_Rgroups>  (572) 
[H],[OH],[H],[H],None,None

>  <m_abbr>  (572) 
D_BimAla

>  <m_name>  (572) 
D-Benzimidazol-2-yl-alanine

>  <m_type>  (572) 
aa

>  <m_subtype>  (572) 
modified

>  <m_chem_types>  (572) 
1:backbone_n,2:backbone_c,3:backbone_n_mod,4:aromatic_nh

$$$$

     RDKit          2D

 18 19  0  0  0  0  0  0  0  0999 V2000
    0.5793   -2.4441    0.0000 R   0  0  0  0  0  0  0  0  0  0  0  0
    0.5785   -1.4441    0.0000 N   0  0  0  0  0  0  0  0  0  0  0  0
   -0.2879   -0.9447    0.0000 R   0  0  0  0  0  0  0  0  0  0  0  0
    1.4441   -0.9433    0.0000 C   0  0  0  0  0  0  0  0  0  0  0  0
    1.4433    0.0567    0.0000 C   0  0  0  0  0  0  0  0  0  0  0  0
    0.5771    0.5559    0.0000 C   0  0  0  0  0  0  0  0  0  0  0  0
    0.5763    1.5561    0.0000 C   0  0  0  0  0  0  0  0  0  0  0  0
   -0.2903    2.0553    0.0000 C   0  0  0  0  0  0  0  0  0  0  0  0
   -1.1559    1.5547    0.0000 C   0  0  0  0  0  0  0  0  0  0  0  0
   -2.0223    2.0539    0.0000 C   0  0  0  0  0  0  0  0  0  0  0  0
   -2.8879    1.5533    0.0000 C   0  0  0  0  0  0  0  0  0  0  0  0
   -2.8871    0.5531    0.0000 C   0  0  0  0  0  0  0  0  0  0  0  0
   -2.0207    0.0539    0.0000 C   0  0  0  0  0  0  0  0  0  0  0  0
   -1.1551    0.5545    0.0000 C   0  0  0  0  0  0  0  0  0  0  0  0
   -0.2887    0.0553    0.0000 N   0  0  0  0  0  0  0  0  0  0  0  0
    2.3105   -1.4427    0.0000 C   0  0  0  0  0  0  0  0  0  0  0  0
    2.3113   -2.4427    0.0000 R   0  0  0  0  0  0  0  0  0  0  0  0
    3.1761   -0.9419    0.0000 O   0  0  0  0  0  0  0  0  0  0  0  0
  1  2  1  0
  2  3  1  0
  2  4  1  0
  4  5  1  6
  5  6  1  0
  6  7  1  0
  7  8  2  0
  8  9  1  0
  9 10  2  0
 10 11  1  0
 11 12  2  0
 12 13  1  0
 13 14  2  0
 14 15  1  0
  4 16  1  0
 16 17  1  0
 16 18  2  0
 15  6  2  0
 14  9  1  0
M  ISO  3   1   1   3   3  17   2
V    1 *
V    3 *
V   17 *
M  END
>  <symbol>  (573) 
D_QuiAla

>  <m_Rgroups>  (573) 
[H],[OH],[H],None,None,None

>  <m_abbr>  (573) 
D_QuiAla

>  <m_name>  (573) 
D-Quinolin-2-yl-alanine

>  <m_type>  (573) 
aa

>  <m_subtype>  (573) 
modified

>  <m_chem_types>  (573) 
1:backbone_n,2:backbone_c,3:backbone_n_mod

$$$$

     RDKit          2D

 13 13  0  0  0  0  0  0  0  0999 V2000
   -0.2470   -2.0100    0.0000 R   0  0  0  0  0  0  0  0  0  0  0  0
   -0.2484   -1.0100    0.0000 N   0  0  0  0  0  0  0  0  0  0  0  0
   -1.1150   -0.5110    0.0000 R   0  0  0  0  0  0  0  0  0  0  0  0
    0.6170   -0.5090    0.0000 C   0  0  0  0  0  0  0  0  0  0  0  0
    0.6158    0.4910    0.0000 C   0  0  0  0  0  0  0  0  0  0  0  0
   -0.2508    0.9898    0.0000 C   0  0  0  0  0  0  0  0  0  0  0  0
   -1.1638    0.5822    0.0000 C   0  0  0  0  0  0  0  0  0  0  0  0
   -1.8340    1.3246    0.0000 C   0  0  0  0  0  0  0  0  0  0  0  0
   -1.3348    2.1910    0.0000 S   0  0  0  0  0  0  0  0  0  0  0  0
   -0.3564    1.9846    0.0000 C   0  0  0  0  0  0  0  0  0  0  0  0
    1.4836   -1.0080    0.0000 C   0  0  0  0  0  0  0  0  0  0  0  0
    1.4848   -2.0080    0.0000 R   0  0  0  0  0  0  0  0  0  0  0  0
    2.3490   -0.5070    0.0000 O   0  0  0  0  0  0  0  0  0  0  0  0
  1  2  1  0
  2  3  1  0
  2  4  1  0
  4  5  1  6
  5  6  1  0
  6  7  1  0
  7  8  2  0
  8  9  1  0
  9 10  1  0
  4 11  1  0
 11 12  1  0
 11 13  2  0
 10  6  2  0
M  ISO  3   1   1   3   3  12   2
V    1 *
V    3 *
V   12 *
M  END
>  <symbol>  (574) 
D_Thi3Ala

>  <m_Rgroups>  (574) 
[H],[OH],[H],None,None,None

>  <m_abbr>  (574) 
D_Thi3Ala

>  <m_name>  (574) 
D-Thiophen-3-yl-alanine

>  <m_type>  (574) 
aa

>  <m_subtype>  (574) 
modified

>  <m_chem_types>  (574) 
1:backbone_n,2:backbone_c,3:backbone_n_mod

$$$$

     RDKit          2D

 18 19  0  0  0  0  0  0  0  0999 V2000
    0.3180   -2.2625    0.0000 R   0  0  0  0  0  0  0  0  0  0  0  0
    0.3156   -1.2799    0.0000 N   0  0  0  0  0  0  0  0  0  0  0  0
   -0.4596   -0.8337    0.0000 R   0  0  0  0  0  0  0  0  0  0  0  0
    1.1390   -0.7773    0.0000 C   0  0  0  0  0  0  0  0  0  0  0  0
    1.1438    0.2643    0.0000 C   0  0  0  0  0  0  0  0  0  0  0  0
    0.2700    0.8351    0.0000 C   0  0  0  0  0  0  0  0  0  0  0  0
   -0.6678    0.4881    0.0000 C   0  0  0  0  0  0  0  0  0  0  0  0
   -1.0378   -0.4449    0.0000 C   0  0  0  0  0  0  0  0  0  0  0  0
   -2.0266   -0.5875    0.0000 C   0  0  0  0  0  0  0  0  0  0  0  0
   -2.6476    0.1961    0.0000 C   0  0  0  0  0  0  0  0  0  0  0  0
   -2.2760    1.1257    0.0000 C   0  0  0  0  0  0  0  0  0  0  0  0
   -1.2896    1.2709    0.0000 C   0  0  0  0  0  0  0  0  0  0  0  0
   -0.7348    2.1037    0.0000 N   0  0  0  0  0  0  0  0  0  0  0  0
    0.2274    1.8349    0.0000 N   0  0  0  0  0  0  0  0  0  0  0  0
    1.0124    2.4555    0.0000 R   0  0  0  0  0  0  0  0  0  0  0  0
    1.9630   -1.2833    0.0000 C   0  0  0  0  0  0  0  0  0  0  0  0
    1.9150   -2.2829    0.0000 R   0  0  0  0  0  0  0  0  0  0  0  0
    2.8356   -0.8215    0.0000 O   0  0  0  0  0  0  0  0  0  0  0  0
  1  2  1  0
  2  3  1  0
  2  4  1  0
  4  5  1  6
  5  6  1  0
  6  7  2  0
  7  8  1  0
  8  9  2  0
  9 10  1  0
 10 11  2  0
 11 12  1  0
 12 13  2  0
 13 14  1  0
 14 15  1  0
  4 16  1  0
 16 17  1  0
 16 18  2  0
 14  6  1  0
 12  7  1  0
M  ISO  4   1   1   3   3  15   4  17   2
V    1 *
V    3 *
V   15 *
V   17 *
M  END
>  <symbol>  (575) 
D_IndAzAla

>  <m_Rgroups>  (575) 
[H],[OH],[H],[H],None,None

>  <m_abbr>  (575) 
D_IndAzAla

>  <m_name>  (575) 
D-Indazol-3-yl-alanine

>  <m_type>  (575) 
aa

>  <m_subtype>  (575) 
modified

>  <m_chem_types>  (575) 
1:backbone_n,2:backbone_c,3:backbone_n_mod,4:aromatic_nh

$$$$

     RDKit          2D

 19 20  0  0  0  0  0  0  0  0999 V2000
    0.1516   -2.9580    0.0000 R   0  0  0  0  0  0  0  0  0  0  0  0
    0.1536   -1.9582    0.0000 N   0  0  0  0  0  0  0  0  0  0  0  0
   -0.7114   -1.4564    0.0000 R   0  0  0  0  0  0  0  0  0  0  0  0
    1.0206   -1.4600    0.0000 C   0  0  0  0  0  0  0  0  0  0  0  0
    1.0226   -0.4598    0.0000 C   0  0  0  0  0  0  0  0  0  0  0  0
    0.1578    0.0418    0.0000 C   0  0  0  0  0  0  0  0  0  0  0  0
   -0.7566   -0.3626    0.0000 C   0  0  0  0  0  0  0  0  0  0  0  0
   -1.4244    0.3816    0.0000 N   0  0  0  0  0  0  0  0  0  0  0  0
   -2.4188    0.2794    0.0000 R   0  0  0  0  0  0  0  0  0  0  0  0
   -0.9224    1.2468    0.0000 C   0  0  0  0  0  0  0  0  0  0  0  0
   -1.2292    2.1984    0.0000 C   0  0  0  0  0  0  0  0  0  0  0  0
   -2.2070    2.4084    0.0000 C   0  0  0  0  0  0  0  0  0  0  0  0
   -0.5586    2.9402    0.0000 C   0  0  0  0  0  0  0  0  0  0  0  0
    0.4192    2.7302    0.0000 C   0  0  0  0  0  0  0  0  0  0  0  0
    0.7260    1.7784    0.0000 C   0  0  0  0  0  0  0  0  0  0  0  0
    0.0554    1.0368    0.0000 C   0  0  0  0  0  0  0  0  0  0  0  0
    1.8854   -1.9618    0.0000 C   0  0  0  0  0  0  0  0  0  0  0  0
    1.8834   -2.9618    0.0000 R   0  0  0  0  0  0  0  0  0  0  0  0
    2.7526   -1.4636    0.0000 O   0  0  0  0  0  0  0  0  0  0  0  0
  1  2  1  0
  2  3  1  0
  2  4  1  0
  4  5  1  1
  5  6  1  0
  6  7  2  0
  7  8  1  0
  8  9  1  0
  8 10  1  0
 10 11  2  0
 11 12  1  0
 11 13  1  0
 13 14  2  0
 14 15  1  0
 15 16  2  0
  4 17  1  0
 17 18  1  0
 17 19  2  0
 16  6  1  0
 16 10  1  0
M  ISO  4   1   1   3   3   9   4  18   2
V    1 *
V    3 *
V    9 *
V   18 *
M  END
>  <symbol>  (576) 
Trp_4Me

>  <m_Rgroups>  (576) 
[H],[OH],[H],[H],None,None

>  <m_abbr>  (576) 
Trp_4Me

>  <m_name>  (576) 
L-4-Methyltryptophan

>  <m_type>  (576) 
aa

>  <m_subtype>  (576) 
modified

>  <m_chem_types>  (576) 
1:backbone_n,2:backbone_c,3:backbone_n_mod,4:aromatic_nh

$$$$

     RDKit          2D

 19 20  0  0  0  0  0  0  0  0999 V2000
   -1.8880   -2.9588    0.0000 R   0  0  0  0  0  0  0  0  0  0  0  0
   -1.8886   -1.9588    0.0000 N   0  0  0  0  0  0  0  0  0  0  0  0
   -2.7550   -1.4592    0.0000 R   0  0  0  0  0  0  0  0  0  0  0  0
   -1.0228   -1.4582    0.0000 C   0  0  0  0  0  0  0  0  0  0  0  0
   -1.0234   -0.4582    0.0000 C   0  0  0  0  0  0  0  0  0  0  0  0
   -0.1578    0.0420    0.0000 C   0  0  0  0  0  0  0  0  0  0  0  0
    0.7560   -0.3638    0.0000 C   0  0  0  0  0  0  0  0  0  0  0  0
    1.4250    0.3794    0.0000 N   0  0  0  0  0  0  0  0  0  0  0  0
    2.4194    0.2756    0.0000 R   0  0  0  0  0  0  0  0  0  0  0  0
    0.9244    1.2452    0.0000 C   0  0  0  0  0  0  0  0  0  0  0  0
    1.2328    2.1964    0.0000 C   0  0  0  0  0  0  0  0  0  0  0  0
    2.2108    2.4050    0.0000 Cl  0  0  0  0  0  0  0  0  0  0  0  0
    0.5632    2.9392    0.0000 C   0  0  0  0  0  0  0  0  0  0  0  0
   -0.4148    2.7308    0.0000 C   0  0  0  0  0  0  0  0  0  0  0  0
   -0.7232    1.7796    0.0000 C   0  0  0  0  0  0  0  0  0  0  0  0
   -0.0536    1.0368    0.0000 C   0  0  0  0  0  0  0  0  0  0  0  0
   -0.1568   -1.9578    0.0000 C   0  0  0  0  0  0  0  0  0  0  0  0
   -0.1562   -2.9578    0.0000 R   0  0  0  0  0  0  0  0  0  0  0  0
    0.7090   -1.4576    0.0000 O   0  0  0  0  0  0  0  0  0  0  0  0
  1  2  1  0
  2  3  1  0
  2  4  1  0
  4  5  1  1
  5  6  1  0
  6  7  2  0
  7  8  1  0
  8  9  1  0
  8 10  1  0
 10 11  2  0
 11 12  1  0
 11 13  1  0
 13 14  2  0
 14 15  1  0
 15 16  2  0
  4 17  1  0
 17 18  1  0
 17 19  2  0
 16  6  1  0
 16 10  1  0
M  ISO  4   1   1   3   3   9   4  18   2
V    1 *
V    3 *
V    9 *
V   18 *
M  END
>  <symbol>  (577) 
Trp_4Cl

>  <m_Rgroups>  (577) 
[H],[OH],[H],[H],None,None

>  <m_abbr>  (577) 
Trp_4Cl

>  <m_name>  (577) 
L-4-Chlorotryptophan

>  <m_type>  (577) 
aa

>  <m_subtype>  (577) 
modified

>  <m_chem_types>  (577) 
1:backbone_n,2:backbone_c,3:backbone_n_mod,4:aromatic_nh

$$$$

     RDKit          2D

 19 20  0  0  0  0  0  0  0  0999 V2000
   -1.8880   -2.9588    0.0000 R   0  0  0  0  0  0  0  0  0  0  0  0
   -1.8886   -1.9588    0.0000 N   0  0  0  0  0  0  0  0  0  0  0  0
   -2.7550   -1.4592    0.0000 R   0  0  0  0  0  0  0  0  0  0  0  0
   -1.0228   -1.4582    0.0000 C   0  0  0  0  0  0  0  0  0  0  0  0
   -1.0234   -0.4582    0.0000 C   0  0  0  0  0  0  0  0  0  0  0  0
   -0.1578    0.0420    0.0000 C   0  0  0  0  0  0  0  0  0  0  0  0
    0.7560   -0.3638    0.0000 C   0  0  0  0  0  0  0  0  0  0  0  0
    1.4250    0.3794    0.0000 N   0  0  0  0  0  0  0  0  0  0  0  0
    2.4194    0.2756    0.0000 R   0  0  0  0  0  0  0  0  0  0  0  0
    0.9244    1.2452    0.0000 C   0  0  0  0  0  0  0  0  0  0  0  0
    1.2328    2.1964    0.0000 C   0  0  0  0  0  0  0  0  0  0  0  0
    2.2108    2.4050    0.0000 Br  0  0  0  0  0  0  0  0  0  0  0  0
    0.5632    2.9392    0.0000 C   0  0  0  0  0  0  0  0  0  0  0  0
   -0.4148    2.7308    0.0000 C   0  0  0  0  0  0  0  0  0  0  0  0
   -0.7232    1.7796    0.0000 C   0  0  0  0  0  0  0  0  0  0  0  0
   -0.0536    1.0368    0.0000 C   0  0  0  0  0  0  0  0  0  0  0  0
   -0.1568   -1.9578    0.0000 C   0  0  0  0  0  0  0  0  0  0  0  0
   -0.1562   -2.9578    0.0000 R   0  0  0  0  0  0  0  0  0  0  0  0
    0.7090   -1.4576    0.0000 O   0  0  0  0  0  0  0  0  0  0  0  0
  1  2  1  0
  2  3  1  0
  2  4  1  0
  4  5  1  1
  5  6  1  0
  6  7  2  0
  7  8  1  0
  8  9  1  0
  8 10  1  0
 10 11  2  0
 11 12  1  0
 11 13  1  0
 13 14  2  0
 14 15  1  0
 15 16  2  0
  4 17  1  0
 17 18  1  0
 17 19  2  0
 16  6  1  0
 16 10  1  0
M  ISO  4   1   1   3   3   9   4  18   2
V    1 *
V    3 *
V    9 *
V   18 *
M  END
>  <symbol>  (578) 
Trp_4Br

>  <m_Rgroups>  (578) 
[H],[OH],[H],[H],None,None

>  <m_abbr>  (578) 
Trp_4Br

>  <m_name>  (578) 
L-4-Bromotryptophan

>  <m_type>  (578) 
aa

>  <m_subtype>  (578) 
modified

>  <m_chem_types>  (578) 
1:backbone_n,2:backbone_c,3:backbone_n_mod,4:aromatic_nh

$$$$

     RDKit          2D

 21 22  0  0  0  0  0  0  0  0999 V2000
    0.1902   -3.4442    0.0000 R   0  0  0  0  0  0  0  0  0  0  0  0
    0.1906   -2.4444    0.0000 N   0  0  0  0  0  0  0  0  0  0  0  0
   -0.6750   -1.9442    0.0000 R   0  0  0  0  0  0  0  0  0  0  0  0
    1.0568   -1.9448    0.0000 C   0  0  0  0  0  0  0  0  0  0  0  0
    1.0574   -0.9448    0.0000 C   0  0  0  0  0  0  0  0  0  0  0  0
    0.1918   -0.4444    0.0000 C   0  0  0  0  0  0  0  0  0  0  0  0
   -0.7220   -0.8504    0.0000 C   0  0  0  0  0  0  0  0  0  0  0  0
   -1.3910   -0.1070    0.0000 N   0  0  0  0  0  0  0  0  0  0  0  0
   -2.3854   -0.2110    0.0000 R   0  0  0  0  0  0  0  0  0  0  0  0
   -0.8904    0.7588    0.0000 C   0  0  0  0  0  0  0  0  0  0  0  0
   -1.1988    1.7100    0.0000 C   0  0  0  0  0  0  0  0  0  0  0  0
   -0.5294    2.4528    0.0000 C   0  0  0  0  0  0  0  0  0  0  0  0
   -0.8378    3.4038    0.0000 N   0  0  0  0  0  0  0  0  0  0  0  0
   -0.1682    4.1466    0.0000 R   0  0  0  0  0  0  0  0  0  0  0  0
   -1.8158    3.6124    0.0000 R   0  0  0  0  0  0  0  0  0  0  0  0
    0.4488    2.2442    0.0000 C   0  0  0  0  0  0  0  0  0  0  0  0
    0.7572    1.2930    0.0000 C   0  0  0  0  0  0  0  0  0  0  0  0
    0.0876    0.5502    0.0000 C   0  0  0  0  0  0  0  0  0  0  0  0
    1.9226   -2.4452    0.0000 C   0  0  0  0  0  0  0  0  0  0  0  0
    1.9220   -3.4454    0.0000 R   0  0  0  0  0  0  0  0  0  0  0  0
    2.7890   -1.9456    0.0000 O   0  0  0  0  0  0  0  0  0  0  0  0
  1  2  1  0
  2  3  1  0
  2  4  1  0
  4  5  1  1
  5  6  1  0
  6  7  2  0
  7  8  1  0
  8  9  1  0
  8 10  1  0
 10 11  1  0
 11 12  2  0
 12 13  1  0
 13 14  1  0
 13 15  1  0
 12 16  1  0
 16 17  2  0
 17 18  1  0
  4 19  1  0
 19 20  1  0
 19 21  2  0
 18  6  1  0
 18 10  2  0
M  ISO  6   1   1   3   3   9   5  14   4  15   6  20   2
V    1 *
V    3 *
V    9 *
V   14 *
V   15 *
V   20 *
M  END
>  <symbol>  (579) 
Trp_5NH2

>  <m_Rgroups>  (579) 
[H],[OH],[H],[H],[H],[H]

>  <m_abbr>  (579) 
Trp_5NH2

>  <m_name>  (579) 
L-5-Aminotryptophan

>  <m_type>  (579) 
aa

>  <m_subtype>  (579) 
modified

>  <m_chem_types>  (579) 
1:backbone_n,2:backbone_c,3:backbone_n_mod,4:amine_primary,5:aromatic_nh,6:amine_secondary

$$$$

     RDKit          2D

 19 20  0  0  0  0  0  0  0  0999 V2000
   -1.6775   -2.9176    0.0000 R   0  0  0  0  0  0  0  0  0  0  0  0
   -1.6797   -1.9174    0.0000 N   0  0  0  0  0  0  0  0  0  0  0  0
   -2.5467   -1.4194    0.0000 R   0  0  0  0  0  0  0  0  0  0  0  0
   -0.8147   -1.4156    0.0000 C   0  0  0  0  0  0  0  0  0  0  0  0
   -0.8169   -0.4156    0.0000 C   0  0  0  0  0  0  0  0  0  0  0  0
    0.0481    0.0860    0.0000 C   0  0  0  0  0  0  0  0  0  0  0  0
    0.9625   -0.3184    0.0000 C   0  0  0  0  0  0  0  0  0  0  0  0
    1.6301    0.4260    0.0000 N   0  0  0  0  0  0  0  0  0  0  0  0
    2.6247    0.3236    0.0000 R   0  0  0  0  0  0  0  0  0  0  0  0
    1.1281    1.2910    0.0000 C   0  0  0  0  0  0  0  0  0  0  0  0
    1.4351    2.2426    0.0000 C   0  0  0  0  0  0  0  0  0  0  0  0
    0.7645    2.9844    0.0000 C   0  0  0  0  0  0  0  0  0  0  0  0
   -0.2133    2.7744    0.0000 C   0  0  0  0  0  0  0  0  0  0  0  0
   -0.5201    1.8226    0.0000 C   0  0  0  0  0  0  0  0  0  0  0  0
   -1.4979    1.6126    0.0000 C   0  0  0  0  0  0  0  0  0  0  0  0
    0.1505    1.0810    0.0000 C   0  0  0  0  0  0  0  0  0  0  0  0
    0.0523   -1.9138    0.0000 C   0  0  0  0  0  0  0  0  0  0  0  0
    0.0543   -2.9138    0.0000 R   0  0  0  0  0  0  0  0  0  0  0  0
    0.9171   -1.4122    0.0000 O   0  0  0  0  0  0  0  0  0  0  0  0
  1  2  1  0
  2  3  1  0
  2  4  1  0
  4  5  1  1
  5  6  1  0
  6  7  2  0
  7  8  1  0
  8  9  1  0
  8 10  1  0
 10 11  2  0
 11 12  1  0
 12 13  2  0
 13 14  1  0
 14 15  1  0
 14 16  2  0
  4 17  1  0
 17 18  1  0
 17 19  2  0
 16  6  1  0
 16 10  1  0
M  ISO  4   1   1   3   3   9   4  18   2
V    1 *
V    3 *
V    9 *
V   18 *
M  END
>  <symbol>  (580) 
Trp_7Me

>  <m_Rgroups>  (580) 
[H],[OH],[H],[H],None,None

>  <m_abbr>  (580) 
Trp_7Me

>  <m_name>  (580) 
L-7-Methyltryptophan

>  <m_type>  (580) 
aa

>  <m_subtype>  (580) 
modified

>  <m_chem_types>  (580) 
1:backbone_n,2:backbone_c,3:backbone_n_mod,4:aromatic_nh

$$$$

     RDKit          2D

 19 20  0  0  0  0  0  0  0  0999 V2000
   -1.6775   -2.9176    0.0000 R   0  0  0  0  0  0  0  0  0  0  0  0
   -1.6797   -1.9174    0.0000 N   0  0  0  0  0  0  0  0  0  0  0  0
   -2.5467   -1.4194    0.0000 R   0  0  0  0  0  0  0  0  0  0  0  0
   -0.8147   -1.4156    0.0000 C   0  0  0  0  0  0  0  0  0  0  0  0
   -0.8169   -0.4156    0.0000 C   0  0  0  0  0  0  0  0  0  0  0  0
    0.0481    0.0860    0.0000 C   0  0  0  0  0  0  0  0  0  0  0  0
    0.9625   -0.3184    0.0000 C   0  0  0  0  0  0  0  0  0  0  0  0
    1.6301    0.4260    0.0000 N   0  0  0  0  0  0  0  0  0  0  0  0
    2.6247    0.3236    0.0000 R   0  0  0  0  0  0  0  0  0  0  0  0
    1.1281    1.2910    0.0000 C   0  0  0  0  0  0  0  0  0  0  0  0
    1.4351    2.2426    0.0000 C   0  0  0  0  0  0  0  0  0  0  0  0
    0.7645    2.9844    0.0000 C   0  0  0  0  0  0  0  0  0  0  0  0
   -0.2133    2.7744    0.0000 C   0  0  0  0  0  0  0  0  0  0  0  0
   -0.5201    1.8226    0.0000 C   0  0  0  0  0  0  0  0  0  0  0  0
   -1.4979    1.6126    0.0000 Cl  0  0  0  0  0  0  0  0  0  0  0  0
    0.1505    1.0810    0.0000 C   0  0  0  0  0  0  0  0  0  0  0  0
    0.0523   -1.9138    0.0000 C   0  0  0  0  0  0  0  0  0  0  0  0
    0.0543   -2.9138    0.0000 R   0  0  0  0  0  0  0  0  0  0  0  0
    0.9171   -1.4122    0.0000 O   0  0  0  0  0  0  0  0  0  0  0  0
  1  2  1  0
  2  3  1  0
  2  4  1  0
  4  5  1  1
  5  6  1  0
  6  7  2  0
  7  8  1  0
  8  9  1  0
  8 10  1  0
 10 11  2  0
 11 12  1  0
 12 13  2  0
 13 14  1  0
 14 15  1  0
 14 16  2  0
  4 17  1  0
 17 18  1  0
 17 19  2  0
 16  6  1  0
 16 10  1  0
M  ISO  4   1   1   3   3   9   4  18   2
V    1 *
V    3 *
V    9 *
V   18 *
M  END
>  <symbol>  (581) 
Trp_7Cl

>  <m_Rgroups>  (581) 
[H],[OH],[H],[H],None,None

>  <m_abbr>  (581) 
Trp_7Cl

>  <m_name>  (581) 
L-7-Chlorotryptophan

>  <m_type>  (581) 
aa

>  <m_subtype>  (581) 
modified

>  <m_chem_types>  (581) 
1:backbone_n,2:backbone_c,3:backbone_n_mod,4:aromatic_nh

$$$$

     RDKit          2D

 19 20  0  0  0  0  0  0  0  0999 V2000
   -1.6483   -2.8861    0.0000 R   0  0  0  0  0  0  0  0  0  0  0  0
   -1.6957   -1.8925    0.0000 N   0  0  0  0  0  0  0  0  0  0  0  0
   -2.5775   -1.4279    0.0000 R   0  0  0  0  0  0  0  0  0  0  0  0
   -0.8699   -1.3785    0.0000 C   0  0  0  0  0  0  0  0  0  0  0  0
   -0.9177   -0.3285    0.0000 C   0  0  0  0  0  0  0  0  0  0  0  0
   -0.0877    0.2589    0.0000 C   0  0  0  0  0  0  0  0  0  0  0  0
    0.8531   -0.0781    0.0000 C   0  0  0  0  0  0  0  0  0  0  0  0
    1.1023   -0.8145    0.0000 C   0  0  0  0  0  0  0  0  0  0  0  0
    1.4627    0.7117    0.0000 N   0  0  0  0  0  0  0  0  0  0  0  0
    2.4623    0.6805    0.0000 R   0  0  0  0  0  0  0  0  0  0  0  0
    0.9035    1.5333    0.0000 C   0  0  0  0  0  0  0  0  0  0  0  0
    1.1421    2.5059    0.0000 C   0  0  0  0  0  0  0  0  0  0  0  0
    0.4203    3.1963    0.0000 C   0  0  0  0  0  0  0  0  0  0  0  0
   -0.5407    2.9191    0.0000 C   0  0  0  0  0  0  0  0  0  0  0  0
   -0.7781    1.9473    0.0000 C   0  0  0  0  0  0  0  0  0  0  0  0
   -0.0591    1.2561    0.0000 C   0  0  0  0  0  0  0  0  0  0  0  0
    0.0109   -1.8935    0.0000 C   0  0  0  0  0  0  0  0  0  0  0  0
    0.0297   -2.8699    0.0000 R   0  0  0  0  0  0  0  0  0  0  0  0
    0.7875   -1.4393    0.0000 O   0  0  0  0  0  0  0  0  0  0  0  0
  1  2  1  0
  2  3  1  0
  2  4  1  0
  4  5  1  1
  5  6  1  0
  6  7  2  0
  7  8  1  0
  7  9  1  0
  9 10  1  0
  9 11  1  0
 11 12  2  0
 12 13  1  0
 13 14  2  0
 14 15  1  0
 15 16  2  0
  4 17  1  0
 17 18  1  0
 17 19  2  0
 16  6  1  0
 16 11  1  0
M  ISO  4   1   1   3   3  10   4  18   2
V    1 *
V    3 *
V   10 *
V   18 *
M  END
>  <symbol>  (582) 
Trp_2Me

>  <m_Rgroups>  (582) 
[H],[OH],[H],[H],None,None

>  <m_abbr>  (582) 
Trp_2Me

>  <m_name>  (582) 
L-2-Methyltryptophan

>  <m_type>  (582) 
aa

>  <m_subtype>  (582) 
modified

>  <m_chem_types>  (582) 
1:backbone_n,2:backbone_c,3:backbone_n_mod,4:aromatic_nh

$$$$

     RDKit          2D

 19 20  0  0  0  0  0  0  0  0999 V2000
    0.1516   -2.9580    0.0000 R   0  0  0  0  0  0  0  0  0  0  0  0
    0.1536   -1.9582    0.0000 N   0  0  0  0  0  0  0  0  0  0  0  0
   -0.7114   -1.4564    0.0000 R   0  0  0  0  0  0  0  0  0  0  0  0
    1.0206   -1.4600    0.0000 C   0  0  0  0  0  0  0  0  0  0  0  0
    1.0226   -0.4598    0.0000 C   0  0  0  0  0  0  0  0  0  0  0  0
    0.1578    0.0418    0.0000 C   0  0  0  0  0  0  0  0  0  0  0  0
   -0.7566   -0.3626    0.0000 C   0  0  0  0  0  0  0  0  0  0  0  0
   -1.4244    0.3816    0.0000 N   0  0  0  0  0  0  0  0  0  0  0  0
   -2.4188    0.2794    0.0000 R   0  0  0  0  0  0  0  0  0  0  0  0
   -0.9224    1.2468    0.0000 C   0  0  0  0  0  0  0  0  0  0  0  0
   -1.2292    2.1984    0.0000 C   0  0  0  0  0  0  0  0  0  0  0  0
   -2.2070    2.4084    0.0000 C   0  0  0  0  0  0  0  0  0  0  0  0
   -0.5586    2.9402    0.0000 C   0  0  0  0  0  0  0  0  0  0  0  0
    0.4192    2.7302    0.0000 C   0  0  0  0  0  0  0  0  0  0  0  0
    0.7260    1.7784    0.0000 C   0  0  0  0  0  0  0  0  0  0  0  0
    0.0554    1.0368    0.0000 C   0  0  0  0  0  0  0  0  0  0  0  0
    1.8854   -1.9618    0.0000 C   0  0  0  0  0  0  0  0  0  0  0  0
    1.8834   -2.9618    0.0000 R   0  0  0  0  0  0  0  0  0  0  0  0
    2.7526   -1.4636    0.0000 O   0  0  0  0  0  0  0  0  0  0  0  0
  1  2  1  0
  2  3  1  0
  2  4  1  0
  4  5  1  6
  5  6  1  0
  6  7  2  0
  7  8  1  0
  8  9  1  0
  8 10  1  0
 10 11  2  0
 11 12  1  0
 11 13  1  0
 13 14  2  0
 14 15  1  0
 15 16  2  0
  4 17  1  0
 17 18  1  0
 17 19  2  0
 16  6  1  0
 16 10  1  0
M  ISO  4   1   1   3   3   9   4  18   2
V    1 *
V    3 *
V    9 *
V   18 *
M  END
>  <symbol>  (583) 
D_Trp_4Me

>  <m_Rgroups>  (583) 
[H],[OH],[H],[H],None,None

>  <m_abbr>  (583) 
D_Trp_4Me

>  <m_name>  (583) 
D-4-Methyltryptophan

>  <m_type>  (583) 
aa

>  <m_subtype>  (583) 
modified

>  <m_chem_types>  (583) 
1:backbone_n,2:backbone_c,3:backbone_n_mod,4:aromatic_nh

$$$$

     RDKit          2D

 19 20  0  0  0  0  0  0  0  0999 V2000
   -1.8880   -2.9588    0.0000 R   0  0  0  0  0  0  0  0  0  0  0  0
   -1.8886   -1.9588    0.0000 N   0  0  0  0  0  0  0  0  0  0  0  0
   -2.7550   -1.4592    0.0000 R   0  0  0  0  0  0  0  0  0  0  0  0
   -1.0228   -1.4582    0.0000 C   0  0  0  0  0  0  0  0  0  0  0  0
   -1.0234   -0.4582    0.0000 C   0  0  0  0  0  0  0  0  0  0  0  0
   -0.1578    0.0420    0.0000 C   0  0  0  0  0  0  0  0  0  0  0  0
    0.7560   -0.3638    0.0000 C   0  0  0  0  0  0  0  0  0  0  0  0
    1.4250    0.3794    0.0000 N   0  0  0  0  0  0  0  0  0  0  0  0
    2.4194    0.2756    0.0000 R   0  0  0  0  0  0  0  0  0  0  0  0
    0.9244    1.2452    0.0000 C   0  0  0  0  0  0  0  0  0  0  0  0
    1.2328    2.1964    0.0000 C   0  0  0  0  0  0  0  0  0  0  0  0
    2.2108    2.4050    0.0000 Br  0  0  0  0  0  0  0  0  0  0  0  0
    0.5632    2.9392    0.0000 C   0  0  0  0  0  0  0  0  0  0  0  0
   -0.4148    2.7308    0.0000 C   0  0  0  0  0  0  0  0  0  0  0  0
   -0.7232    1.7796    0.0000 C   0  0  0  0  0  0  0  0  0  0  0  0
   -0.0536    1.0368    0.0000 C   0  0  0  0  0  0  0  0  0  0  0  0
   -0.1568   -1.9578    0.0000 C   0  0  0  0  0  0  0  0  0  0  0  0
   -0.1562   -2.9578    0.0000 R   0  0  0  0  0  0  0  0  0  0  0  0
    0.7090   -1.4576    0.0000 O   0  0  0  0  0  0  0  0  0  0  0  0
  1  2  1  0
  2  3  1  0
  2  4  1  0
  4  5  1  6
  5  6  1  0
  6  7  2  0
  7  8  1  0
  8  9  1  0
  8 10  1  0
 10 11  2  0
 11 12  1  0
 11 13  1  0
 13 14  2  0
 14 15  1  0
 15 16  2  0
  4 17  1  0
 17 18  1  0
 17 19  2  0
 16  6  1  0
 16 10  1  0
M  ISO  4   1   1   3   3   9   4  18   2
V    1 *
V    3 *
V    9 *
V   18 *
M  END
>  <symbol>  (584) 
D_Trp_4Br

>  <m_Rgroups>  (584) 
[H],[OH],[H],[H],None,None

>  <m_abbr>  (584) 
D_Trp_4Br

>  <m_name>  (584) 
D-4-Bromotryptophan

>  <m_type>  (584) 
aa

>  <m_subtype>  (584) 
modified

>  <m_chem_types>  (584) 
1:backbone_n,2:backbone_c,3:backbone_n_mod,4:aromatic_nh

$$$$

     RDKit          2D

 19 20  0  0  0  0  0  0  0  0999 V2000
   -1.6775   -2.9176    0.0000 R   0  0  0  0  0  0  0  0  0  0  0  0
   -1.6797   -1.9174    0.0000 N   0  0  0  0  0  0  0  0  0  0  0  0
   -2.5467   -1.4194    0.0000 R   0  0  0  0  0  0  0  0  0  0  0  0
   -0.8147   -1.4156    0.0000 C   0  0  0  0  0  0  0  0  0  0  0  0
   -0.8169   -0.4156    0.0000 C   0  0  0  0  0  0  0  0  0  0  0  0
    0.0481    0.0860    0.0000 C   0  0  0  0  0  0  0  0  0  0  0  0
    0.9625   -0.3184    0.0000 C   0  0  0  0  0  0  0  0  0  0  0  0
    1.6301    0.4260    0.0000 N   0  0  0  0  0  0  0  0  0  0  0  0
    2.6247    0.3236    0.0000 R   0  0  0  0  0  0  0  0  0  0  0  0
    1.1281    1.2910    0.0000 C   0  0  0  0  0  0  0  0  0  0  0  0
    1.4351    2.2426    0.0000 C   0  0  0  0  0  0  0  0  0  0  0  0
    0.7645    2.9844    0.0000 C   0  0  0  0  0  0  0  0  0  0  0  0
   -0.2133    2.7744    0.0000 C   0  0  0  0  0  0  0  0  0  0  0  0
   -0.5201    1.8226    0.0000 C   0  0  0  0  0  0  0  0  0  0  0  0
   -1.4979    1.6126    0.0000 C   0  0  0  0  0  0  0  0  0  0  0  0
    0.1505    1.0810    0.0000 C   0  0  0  0  0  0  0  0  0  0  0  0
    0.0523   -1.9138    0.0000 C   0  0  0  0  0  0  0  0  0  0  0  0
    0.0543   -2.9138    0.0000 R   0  0  0  0  0  0  0  0  0  0  0  0
    0.9171   -1.4122    0.0000 O   0  0  0  0  0  0  0  0  0  0  0  0
  1  2  1  0
  2  3  1  0
  2  4  1  0
  4  5  1  6
  5  6  1  0
  6  7  2  0
  7  8  1  0
  8  9  1  0
  8 10  1  0
 10 11  2  0
 11 12  1  0
 12 13  2  0
 13 14  1  0
 14 15  1  0
 14 16  2  0
  4 17  1  0
 17 18  1  0
 17 19  2  0
 16  6  1  0
 16 10  1  0
M  ISO  4   1   1   3   3   9   4  18   2
V    1 *
V    3 *
V    9 *
V   18 *
M  END
>  <symbol>  (585) 
D_Trp_7Me

>  <m_Rgroups>  (585) 
[H],[OH],[H],[H],None,None

>  <m_abbr>  (585) 
D_Trp_7Me

>  <m_name>  (585) 
D-7-Methyltryptophan

>  <m_type>  (585) 
aa

>  <m_subtype>  (585) 
modified

>  <m_chem_types>  (585) 
1:backbone_n,2:backbone_c,3:backbone_n_mod,4:aromatic_nh

$$$$

     RDKit          2D

 17 17  0  0  0  0  0  0  0  0999 V2000
    0.3077   -2.5880    0.0000 R   0  0  0  0  0  0  0  0  0  0  0  0
    0.3069   -1.5880    0.0000 N   0  0  0  0  0  0  0  0  0  0  0  0
   -0.5595   -1.0888    0.0000 R   0  0  0  0  0  0  0  0  0  0  0  0
    1.1725   -1.0874    0.0000 C   0  0  0  0  0  0  0  0  0  0  0  0
    1.1717   -0.0874    0.0000 C   0  0  0  0  0  0  0  0  0  0  0  0
    0.3055    0.4120    0.0000 C   0  0  0  0  0  0  0  0  0  0  0  0
   -0.5603   -0.0886    0.0000 C   0  0  0  0  0  0  0  0  0  0  0  0
   -1.4267    0.4106    0.0000 C   0  0  0  0  0  0  0  0  0  0  0  0
   -1.4275    1.4106    0.0000 C   0  0  0  0  0  0  0  0  0  0  0  0
   -2.2939    1.9098    0.0000 O   0  0  0  0  0  0  0  0  0  0  0  0
   -3.1595    1.4092    0.0000 R   0  0  0  0  0  0  0  0  0  0  0  0
   -0.5619    1.9112    0.0000 C   0  0  0  0  0  0  0  0  0  0  0  0
   -0.5627    2.9112    0.0000 I   0  0  0  0  0  0  0  0  0  0  0  0
    0.3047    1.4120    0.0000 C   0  0  0  0  0  0  0  0  0  0  0  0
    2.0389   -1.5866    0.0000 C   0  0  0  0  0  0  0  0  0  0  0  0
    2.0397   -2.5866    0.0000 R   0  0  0  0  0  0  0  0  0  0  0  0
    2.9045   -1.0860    0.0000 O   0  0  0  0  0  0  0  0  0  0  0  0
  1  2  1  0
  2  3  1  0
  2  4  1  0
  4  5  1  6
  5  6  1  0
  6  7  1  0
  7  8  2  0
  8  9  1  0
  9 10  1  0
 10 11  1  0
  9 12  2  0
 12 13  1  0
 12 14  1  0
  4 15  1  0
 15 16  1  0
 15 17  2  0
 14  6  2  0
M  ISO  4   1   1   3   3  11   4  16   2
V    1 *
V    3 *
V   11 *
V   16 *
M  END
>  <symbol>  (586) 
D_Tyr_3I

>  <m_Rgroups>  (586) 
[H],[OH],[H],[H],None,None

>  <m_abbr>  (586) 
D_Tyr_3I

>  <m_name>  (586) 
D-3-Iodotyrosine

>  <m_type>  (586) 
aa

>  <m_subtype>  (586) 
modified

>  <m_chem_types>  (586) 
1:backbone_n,2:backbone_c,3:backbone_n_mod,4:hydroxyl_phenolic

$$$$

     RDKit          2D

 19 19  0  0  0  0  0  0  0  0999 V2000
    0.3080   -3.0273    0.0000 R   0  0  0  0  0  0  0  0  0  0  0  0
    0.3116   -2.0275    0.0000 N   0  0  0  0  0  0  0  0  0  0  0  0
   -0.5526   -1.5243    0.0000 R   0  0  0  0  0  0  0  0  0  0  0  0
    1.1796   -1.5305    0.0000 C   0  0  0  0  0  0  0  0  0  0  0  0
    1.1832   -0.5305    0.0000 C   0  0  0  0  0  0  0  0  0  0  0  0
    0.3190   -0.0275    0.0000 C   0  0  0  0  0  0  0  0  0  0  0  0
   -0.5490   -0.5245    0.0000 C   0  0  0  0  0  0  0  0  0  0  0  0
   -1.4130   -0.0213    0.0000 C   0  0  0  0  0  0  0  0  0  0  0  0
   -1.4096    0.9787    0.0000 C   0  0  0  0  0  0  0  0  0  0  0  0
   -2.2738    1.4817    0.0000 O   0  0  0  0  0  0  0  0  0  0  0  0
   -2.2700    2.4817    0.0000 R   0  0  0  0  0  0  0  0  0  0  0  0
   -0.5416    1.4757    0.0000 C   0  0  0  0  0  0  0  0  0  0  0  0
   -0.5380    2.4755    0.0000 N   0  0  0  0  0  0  0  0  0  0  0  0
    0.3298    2.9725    0.0000 O   0  0  0  0  0  0  0  0  0  0  0  0
   -1.4022    2.9787    0.0000 O   0  0  0  0  0  0  0  0  0  0  0  0
    0.3224    0.9725    0.0000 C   0  0  0  0  0  0  0  0  0  0  0  0
    2.0438   -2.0337    0.0000 C   0  0  0  0  0  0  0  0  0  0  0  0
    2.0402   -3.0337    0.0000 R   0  0  0  0  0  0  0  0  0  0  0  0
    2.9116   -1.5367    0.0000 O   0  0  0  0  0  0  0  0  0  0  0  0
  1  2  1  0
  2  3  1  0
  2  4  1  0
  4  5  1  6
  5  6  1  0
  6  7  1  0
  7  8  2  0
  8  9  1  0
  9 10  1  0
 10 11  1  0
  9 12  2  0
 12 13  1  0
 13 14  2  0
 13 15  1  0
 12 16  1  0
  4 17  1  0
 17 18  1  0
 17 19  2  0
 16  6  2  0
M  CHG  2  13   1  15  -1
M  ISO  4   1   1   3   3  11   4  18   2
V    1 *
V    3 *
V   11 *
V   18 *
M  END
>  <symbol>  (587) 
D_Tyr_3NO2

>  <m_Rgroups>  (587) 
[H],[OH],[H],[H],None,None

>  <m_abbr>  (587) 
D_Tyr_3NO2

>  <m_name>  (587) 
D-3-Nitrotyrosine

>  <m_type>  (587) 
aa

>  <m_subtype>  (587) 
modified

>  <m_chem_types>  (587) 
1:backbone_n,2:backbone_c,3:backbone_n_mod,4:hydroxyl_phenolic

$$$$

     RDKit          2D

 22 23  0  0  0  0  0  0  0  0999 V2000
    1.3254   -3.5955    0.0000 R   0  0  0  0  0  0  0  0  0  0  0  0
    1.3290   -2.5957    0.0000 N   0  0  0  0  0  0  0  0  0  0  0  0
    0.4648   -2.0925    0.0000 R   0  0  0  0  0  0  0  0  0  0  0  0
    2.1968   -2.0987    0.0000 C   0  0  0  0  0  0  0  0  0  0  0  0
    2.2004   -1.0987    0.0000 C   0  0  0  0  0  0  0  0  0  0  0  0
    1.3362   -0.5957    0.0000 C   0  0  0  0  0  0  0  0  0  0  0  0
    0.4684   -1.0927    0.0000 C   0  0  0  0  0  0  0  0  0  0  0  0
   -0.3958   -0.5895    0.0000 C   0  0  0  0  0  0  0  0  0  0  0  0
   -0.3922    0.4105    0.0000 C   0  0  0  0  0  0  0  0  0  0  0  0
   -1.2564    0.9135    0.0000 O   0  0  0  0  0  0  0  0  0  0  0  0
   -1.2528    1.9135    0.0000 C   0  0  0  0  0  0  0  0  0  0  0  0
   -2.1170    2.4167    0.0000 C   0  0  0  0  0  0  0  0  0  0  0  0
   -2.9848    1.9197    0.0000 C   0  0  0  0  0  0  0  0  0  0  0  0
   -3.8490    2.4229    0.0000 C   0  0  0  0  0  0  0  0  0  0  0  0
   -3.8454    3.4229    0.0000 C   0  0  0  0  0  0  0  0  0  0  0  0
   -2.9776    3.9197    0.0000 C   0  0  0  0  0  0  0  0  0  0  0  0
   -2.1134    3.4165    0.0000 C   0  0  0  0  0  0  0  0  0  0  0  0
    0.4756    0.9075    0.0000 C   0  0  0  0  0  0  0  0  0  0  0  0
    1.3398    0.4043    0.0000 C   0  0  0  0  0  0  0  0  0  0  0  0
    3.0610   -2.6019    0.0000 C   0  0  0  0  0  0  0  0  0  0  0  0
    3.0574   -3.6019    0.0000 R   0  0  0  0  0  0  0  0  0  0  0  0
    3.9288   -2.1049    0.0000 O   0  0  0  0  0  0  0  0  0  0  0  0
  1  2  1  0
  2  3  1  0
  2  4  1  0
  4  5  1  1
  5  6  1  0
  6  7  1  0
  7  8  2  0
  8  9  1  0
  9 10  1  0
 10 11  1  0
 11 12  1  0
 12 13  2  0
 13 14  1  0
 14 15  2  0
 15 16  1  0
 16 17  2  0
  9 18  2  0
 18 19  1  0
  4 20  1  0
 20 21  1  0
 20 22  2  0
 19  6  2  0
 17 12  1  0
M  ISO  3   1   1   3   3  21   2
V    1 *
V    3 *
V   21 *
M  END
>  <symbol>  (588) 
Tyr_OBn

>  <m_Rgroups>  (588) 
[H],[OH],[H],None,None,None

>  <m_abbr>  (588) 
Tyr_OBn

>  <m_name>  (588) 
L-O-Benzyl-tyrosine

>  <m_type>  (588) 
aa

>  <m_subtype>  (588) 
modified

>  <m_chem_types>  (588) 
1:backbone_n,2:backbone_c,3:backbone_n_mod

$$$$

     RDKit          2D

 16 16  0  0  0  0  0  0  0  0999 V2000
   -1.9428    2.8788    0.0000 R   0  0  0  0  0  0  0  0  0  0  0  0
   -1.9448    1.8788    0.0000 N   0  0  0  0  0  0  0  0  0  0  0  0
   -2.8118    1.3806    0.0000 R   0  0  0  0  0  0  0  0  0  0  0  0
   -1.0798    1.3772    0.0000 C   0  0  0  0  0  0  0  0  0  0  0  0
   -1.0818    0.3772    0.0000 C   0  0  0  0  0  0  0  0  0  0  0  0
   -0.2168   -0.1246    0.0000 O   0  0  0  0  0  0  0  0  0  0  0  0
   -0.2188   -1.1246    0.0000 C   0  0  0  0  0  0  0  0  0  0  0  0
    0.6462   -1.6262    0.0000 C   0  0  0  0  0  0  0  0  0  0  0  0
    0.6442   -2.6262    0.0000 C   0  0  0  0  0  0  0  0  0  0  0  0
    1.5092   -3.1280    0.0000 C   0  0  0  0  0  0  0  0  0  0  0  0
    2.3764   -2.6298    0.0000 C   0  0  0  0  0  0  0  0  0  0  0  0
    2.3782   -1.6298    0.0000 C   0  0  0  0  0  0  0  0  0  0  0  0
    1.5132   -1.1280    0.0000 C   0  0  0  0  0  0  0  0  0  0  0  0
   -0.2128    1.8754    0.0000 C   0  0  0  0  0  0  0  0  0  0  0  0
    0.6522    1.3736    0.0000 R   0  0  0  0  0  0  0  0  0  0  0  0
   -0.2108    2.8754    0.0000 O   0  0  0  0  0  0  0  0  0  0  0  0
  1  2  1  0
  2  3  1  0
  2  4  1  0
  4  5  1  6
  5  6  1  0
  6  7  1  0
  7  8  1  0
  8  9  2  0
  9 10  1  0
 10 11  2  0
 11 12  1  0
 12 13  2  0
  4 14  1  0
 14 15  1  0
 14 16  2  0
 13  8  1  0
M  ISO  3   1   1   3   3  15   2
V    1 *
V    3 *
V   15 *
M  END
>  <symbol>  (589) 
Ser_OBn

>  <m_Rgroups>  (589) 
[H],[OH],[H],None,None,None

>  <m_abbr>  (589) 
Ser_OBn

>  <m_name>  (589) 
L-O-Benzyl-serine

>  <m_type>  (589) 
aa

>  <m_subtype>  (589) 
modified

>  <m_chem_types>  (589) 
1:backbone_n,2:backbone_c,3:backbone_n_mod

$$$$

     RDKit          2D

 10 10  0  0  0  0  0  0  0  0999 V2000
   -0.7621   -1.5117    0.0000 R   0  0  0  0  0  0  0  0  0  0  0  0
   -0.6045   -0.5241    0.0000 N   0  0  0  0  0  0  0  0  0  0  0  0
   -1.3107    0.1839    0.0000 C   0  0  0  0  0  0  0  0  0  0  0  0
   -0.8557    1.0743    0.0000 C   0  0  0  0  0  0  0  0  0  0  0  0
   -1.3085    1.9659    0.0000 C   0  0  0  0  0  0  0  0  0  0  0  0
    0.1319    0.9165    0.0000 C   0  0  0  0  0  0  0  0  0  0  0  0
    0.2871   -0.0713    0.0000 C   0  0  0  0  0  0  0  0  0  0  0  0
    1.1775   -0.5263    0.0000 C   0  0  0  0  0  0  0  0  0  0  0  0
    1.2287   -1.5249    0.0000 R   0  0  0  0  0  0  0  0  0  0  0  0
    2.0167    0.0173    0.0000 O   0  0  0  0  0  0  0  0  0  0  0  0
  1  2  1  0
  2  3  1  0
  3  4  1  0
  4  5  1  1
  4  6  1  0
  6  7  1  0
  7  8  1  1
  8  9  1  0
  8 10  2  0
  7  2  1  0
M  ISO  2   1   1   9   2
V    1 *
V    9 *
M  END
>  <symbol>  (590) 
Pro_4Me_t

>  <m_Rgroups>  (590) 
[H],[OH],None,None,None,None

>  <m_abbr>  (590) 
Pro_4Me_t

>  <m_name>  (590) 
trans-4-Methyl-L-proline (2S,4R)

>  <m_type>  (590) 
aa

>  <m_subtype>  (590) 
modified

>  <m_chem_types>  (590) 
1:backbone_n,2:backbone_c

$$$$

     RDKit          2D

 10 10  0  0  0  0  0  0  0  0999 V2000
   -0.7621   -1.5117    0.0000 R   0  0  0  0  0  0  0  0  0  0  0  0
   -0.6045   -0.5241    0.0000 N   0  0  0  0  0  0  0  0  0  0  0  0
   -1.3107    0.1839    0.0000 C   0  0  0  0  0  0  0  0  0  0  0  0
   -0.8557    1.0743    0.0000 C   0  0  0  0  0  0  0  0  0  0  0  0
   -1.3085    1.9659    0.0000 C   0  0  0  0  0  0  0  0  0  0  0  0
    0.1319    0.9165    0.0000 C   0  0  0  0  0  0  0  0  0  0  0  0
    0.2871   -0.0713    0.0000 C   0  0  0  0  0  0  0  0  0  0  0  0
    1.1775   -0.5263    0.0000 C   0  0  0  0  0  0  0  0  0  0  0  0
    1.2287   -1.5249    0.0000 R   0  0  0  0  0  0  0  0  0  0  0  0
    2.0167    0.0173    0.0000 O   0  0  0  0  0  0  0  0  0  0  0  0
  1  2  1  0
  2  3  1  0
  3  4  1  0
  4  5  1  6
  4  6  1  0
  6  7  1  0
  7  8  1  1
  8  9  1  0
  8 10  2  0
  7  2  1  0
M  ISO  2   1   1   9   2
V    1 *
V    9 *
M  END
>  <symbol>  (591) 
Pro_4Me_c

>  <m_Rgroups>  (591) 
[H],[OH],None,None,None,None

>  <m_abbr>  (591) 
Pro_4Me_c

>  <m_name>  (591) 
cis-4-Methyl-L-proline (2S,4S)

>  <m_type>  (591) 
aa

>  <m_subtype>  (591) 
modified

>  <m_chem_types>  (591) 
1:backbone_n,2:backbone_c

$$$$

     RDKit          2D

 12 12  0  0  0  0  0  0  0  0999 V2000
   -0.5065   -1.9135    0.0000 R   0  0  0  0  0  0  0  0  0  0  0  0
   -0.3487   -0.9261    0.0000 N   0  0  0  0  0  0  0  0  0  0  0  0
   -1.0549   -0.2181    0.0000 C   0  0  0  0  0  0  0  0  0  0  0  0
   -0.5999    0.6723    0.0000 C   0  0  0  0  0  0  0  0  0  0  0  0
   -1.0527    1.5639    0.0000 N   0  0  0  0  0  0  0  0  0  0  0  0
   -0.5071    2.4019    0.0000 R   0  0  0  0  0  0  0  0  0  0  0  0
   -2.0513    1.6175    0.0000 R   0  0  0  0  0  0  0  0  0  0  0  0
    0.3877    0.5147    0.0000 C   0  0  0  0  0  0  0  0  0  0  0  0
    0.5429   -0.4731    0.0000 C   0  0  0  0  0  0  0  0  0  0  0  0
    1.4333   -0.9283    0.0000 C   0  0  0  0  0  0  0  0  0  0  0  0
    1.4845   -1.9269    0.0000 R   0  0  0  0  0  0  0  0  0  0  0  0
    2.2725   -0.3847    0.0000 O   0  0  0  0  0  0  0  0  0  0  0  0
  1  2  1  0
  2  3  1  0
  3  4  1  0
  4  5  1  1
  5  6  1  0
  5  7  1  0
  4  8  1  0
  8  9  1  0
  9 10  1  1
 10 11  1  0
 10 12  2  0
  9  2  1  0
M  ISO  4   1   1   6   3   7   4  11   2
V    1 *
V    6 *
V    7 *
V   11 *
M  END
>  <symbol>  (592) 
Pro_4NH2_t

>  <m_Rgroups>  (592) 
[H],[OH],[H],[H],None,None

>  <m_abbr>  (592) 
Pro_4NH2_t

>  <m_name>  (592) 
trans-4-Amino-L-proline (2S,4R)

>  <m_type>  (592) 
aa

>  <m_subtype>  (592) 
modified

>  <m_chem_types>  (592) 
1:backbone_n,2:backbone_c,3:amine_primary,4:amine_secondary

$$$$

     RDKit          2D

 12 12  0  0  0  0  0  0  0  0999 V2000
   -0.5065   -1.9135    0.0000 R   0  0  0  0  0  0  0  0  0  0  0  0
   -0.3487   -0.9261    0.0000 N   0  0  0  0  0  0  0  0  0  0  0  0
   -1.0549   -0.2181    0.0000 C   0  0  0  0  0  0  0  0  0  0  0  0
   -0.5999    0.6723    0.0000 C   0  0  0  0  0  0  0  0  0  0  0  0
   -1.0527    1.5639    0.0000 N   0  0  0  0  0  0  0  0  0  0  0  0
   -0.5071    2.4019    0.0000 R   0  0  0  0  0  0  0  0  0  0  0  0
   -2.0513    1.6175    0.0000 R   0  0  0  0  0  0  0  0  0  0  0  0
    0.3877    0.5147    0.0000 C   0  0  0  0  0  0  0  0  0  0  0  0
    0.5429   -0.4731    0.0000 C   0  0  0  0  0  0  0  0  0  0  0  0
    1.4333   -0.9283    0.0000 C   0  0  0  0  0  0  0  0  0  0  0  0
    1.4845   -1.9269    0.0000 R   0  0  0  0  0  0  0  0  0  0  0  0
    2.2725   -0.3847    0.0000 O   0  0  0  0  0  0  0  0  0  0  0  0
  1  2  1  0
  2  3  1  0
  3  4  1  0
  4  5  1  6
  5  6  1  0
  5  7  1  0
  4  8  1  0
  8  9  1  0
  9 10  1  1
 10 11  1  0
 10 12  2  0
  9  2  1  0
M  ISO  4   1   1   6   3   7   4  11   2
V    1 *
V    6 *
V    7 *
V   11 *
M  END
>  <symbol>  (593) 
Pro_4NH2_c

>  <m_Rgroups>  (593) 
[H],[OH],[H],[H],None,None

>  <m_abbr>  (593) 
Pro_4NH2_c

>  <m_name>  (593) 
cis-4-Amino-L-proline (2S,4S)

>  <m_type>  (593) 
aa

>  <m_subtype>  (593) 
modified

>  <m_chem_types>  (593) 
1:backbone_n,2:backbone_c,3:amine_primary,4:amine_secondary

$$$$

     RDKit          2D

 12 11  0  0  0  0  0  0  0  0999 V2000
   -1.1505    2.0855    0.0000 R   0  0  0  0  0  0  0  0  0  0  0  0
   -1.1525    1.0857    0.0000 N   0  0  0  0  0  0  0  0  0  0  0  0
   -2.0195    0.5873    0.0000 R   0  0  0  0  0  0  0  0  0  0  0  0
   -0.2875    0.5839    0.0000 C   0  0  0  0  0  0  0  0  0  0  0  0
   -0.2895   -0.4161    0.0000 C   0  0  0  0  0  0  0  0  0  0  0  0
    0.5755   -0.9177    0.0000 C   0  0  0  0  0  0  0  0  0  0  0  0
    0.5735   -1.9177    0.0000 C   0  0  0  0  0  0  0  0  0  0  0  0
    1.4385   -2.4195    0.0000 C   0  0  0  0  0  0  0  0  0  0  0  0
   -0.2935   -2.4161    0.0000 C   0  0  0  0  0  0  0  0  0  0  0  0
    0.5795    1.0821    0.0000 C   0  0  0  0  0  0  0  0  0  0  0  0
    1.4445    0.5805    0.0000 R   0  0  0  0  0  0  0  0  0  0  0  0
    0.5815    2.0821    0.0000 O   0  0  0  0  0  0  0  0  0  0  0  0
  1  2  1  0
  2  3  1  0
  2  4  1  0
  4  5  1  6
  5  6  1  0
  6  7  1  0
  7  8  1  0
  7  9  1  0
  4 10  1  0
 10 11  1  0
 10 12  2  0
M  ISO  3   1   1   3   3  11   2
V    1 *
V    3 *
V   11 *
M  END
>  <symbol>  (594) 
hLeu

>  <m_Rgroups>  (594) 
[H],[OH],[H],None,None,None

>  <m_abbr>  (594) 
hLeu

>  <m_name>  (594) 
L-Homoleucine (2-amino-5-methylhexanoic acid)

>  <m_type>  (594) 
aa

>  <m_subtype>  (594) 
modified

>  <m_chem_types>  (594) 
1:backbone_n,2:backbone_c,3:backbone_n_mod

$$$$

     RDKit          2D

 12 11  0  0  0  0  0  0  0  0999 V2000
   -1.2947    2.1692    0.0000 R   0  0  0  0  0  0  0  0  0  0  0  0
   -1.2967    1.1692    0.0000 N   0  0  0  0  0  0  0  0  0  0  0  0
   -2.1637    0.6710    0.0000 R   0  0  0  0  0  0  0  0  0  0  0  0
   -0.4317    0.6676    0.0000 C   0  0  0  0  0  0  0  0  0  0  0  0
   -0.4337   -0.3324    0.0000 C   0  0  0  0  0  0  0  0  0  0  0  0
    0.4313   -0.8342    0.0000 C   0  0  0  0  0  0  0  0  0  0  0  0
    0.4293   -1.8342    0.0000 C   0  0  0  0  0  0  0  0  0  0  0  0
    1.2943   -2.3358    0.0000 S   0  0  0  0  0  0  0  0  0  0  0  0
    1.2923   -3.3358    0.0000 C   0  0  0  0  0  0  0  0  0  0  0  0
    0.4353    1.1658    0.0000 C   0  0  0  0  0  0  0  0  0  0  0  0
    1.3005    0.6640    0.0000 R   0  0  0  0  0  0  0  0  0  0  0  0
    0.4375    2.1658    0.0000 O   0  0  0  0  0  0  0  0  0  0  0  0
  1  2  1  0
  2  3  1  0
  2  4  1  0
  4  5  1  6
  5  6  1  0
  6  7  1  0
  7  8  1  0
  8  9  1  0
  4 10  1  0
 10 11  1  0
 10 12  2  0
M  ISO  3   1   1   3   3  11   2
V    1 *
V    3 *
V   11 *
M  END
>  <symbol>  (595) 
hMet

>  <m_Rgroups>  (595) 
[H],[OH],[H],None,None,None

>  <m_abbr>  (595) 
hMet

>  <m_name>  (595) 
L-Homomethionine (2-amino-5-methylthiopentanoic acid)

>  <m_type>  (595) 
aa

>  <m_subtype>  (595) 
modified

>  <m_chem_types>  (595) 
1:backbone_n,2:backbone_c,3:backbone_n_mod

$$$$

     RDKit          2D

 12 11  0  0  0  0  0  0  0  0999 V2000
   -1.2952    1.9193    0.0000 R   0  0  0  0  0  0  0  0  0  0  0  0
   -1.2972    0.9193    0.0000 N   0  0  0  0  0  0  0  0  0  0  0  0
   -2.1642    0.4211    0.0000 R   0  0  0  0  0  0  0  0  0  0  0  0
   -0.4322    0.4175    0.0000 C   0  0  0  0  0  0  0  0  0  0  0  0
   -0.4342   -0.5825    0.0000 C   0  0  0  0  0  0  0  0  0  0  0  0
    0.4308   -1.0841    0.0000 C   0  0  0  0  0  0  0  0  0  0  0  0
    1.2978   -0.5859    0.0000 C   0  0  0  0  0  0  0  0  0  0  0  0
    0.4288   -2.0841    0.0000 C   0  0  0  0  0  0  0  0  0  0  0  0
    1.2938   -2.5859    0.0000 C   0  0  0  0  0  0  0  0  0  0  0  0
    0.4348    0.9159    0.0000 C   0  0  0  0  0  0  0  0  0  0  0  0
    1.2998    0.4141    0.0000 R   0  0  0  0  0  0  0  0  0  0  0  0
    0.4368    1.9157    0.0000 O   0  0  0  0  0  0  0  0  0  0  0  0
  1  2  1  0
  2  3  1  0
  2  4  1  0
  4  5  1  6
  5  6  1  0
  6  7  1  0
  6  8  1  0
  8  9  1  0
  4 10  1  0
 10 11  1  0
 10 12  2  0
M  ISO  3   1   1   3   3  11   2
V    1 *
V    3 *
V   11 *
M  END
>  <symbol>  (596) 
hIle

>  <m_Rgroups>  (596) 
[H],[OH],[H],None,None,None

>  <m_abbr>  (596) 
hIle

>  <m_name>  (596) 
L-Homoisoleucine (2-amino-3-methylhexanoic acid)

>  <m_type>  (596) 
aa

>  <m_subtype>  (596) 
modified

>  <m_chem_types>  (596) 
1:backbone_n,2:backbone_c,3:backbone_n_mod

$$$$

     RDKit          2D

 12 11  0  0  0  0  0  0  0  0999 V2000
   -1.2947    2.1692    0.0000 R   0  0  0  0  0  0  0  0  0  0  0  0
   -1.2967    1.1692    0.0000 N   0  0  0  0  0  0  0  0  0  0  0  0
   -2.1637    0.6710    0.0000 R   0  0  0  0  0  0  0  0  0  0  0  0
   -0.4317    0.6676    0.0000 C   0  0  0  0  0  0  0  0  0  0  0  0
   -0.4337   -0.3324    0.0000 C   0  0  0  0  0  0  0  0  0  0  0  0
    0.4313   -0.8342    0.0000 C   0  0  0  0  0  0  0  0  0  0  0  0
    0.4293   -1.8342    0.0000 C   0  0  0  0  0  0  0  0  0  0  0  0
    1.2943   -2.3358    0.0000 C   0  0  0  0  0  0  0  0  0  0  0  0
    1.2923   -3.3358    0.0000 C   0  0  0  0  0  0  0  0  0  0  0  0
    0.4353    1.1658    0.0000 C   0  0  0  0  0  0  0  0  0  0  0  0
    1.3005    0.6640    0.0000 R   0  0  0  0  0  0  0  0  0  0  0  0
    0.4375    2.1658    0.0000 O   0  0  0  0  0  0  0  0  0  0  0  0
  1  2  1  0
  2  3  1  0
  2  4  1  0
  4  5  1  6
  5  6  1  0
  6  7  1  0
  7  8  1  0
  8  9  1  0
  4 10  1  0
 10 11  1  0
 10 12  2  0
M  ISO  3   1   1   3   3  11   2
V    1 *
V    3 *
V   11 *
M  END
>  <symbol>  (597) 
hNle

>  <m_Rgroups>  (597) 
[H],[OH],[H],None,None,None

>  <m_abbr>  (597) 
hNle

>  <m_name>  (597) 
L-Homon­orleucine (2-aminoheptanoic acid)

>  <m_type>  (597) 
aa

>  <m_subtype>  (597) 
modified

>  <m_chem_types>  (597) 
1:backbone_n,2:backbone_c,3:backbone_n_mod

$$$$

     RDKit          2D

 11 10  0  0  0  0  0  0  0  0999 V2000
   -1.1771    1.8660    0.0000 R   0  0  0  0  0  0  0  0  0  0  0  0
   -1.1791    0.8660    0.0000 N   0  0  0  0  0  0  0  0  0  0  0  0
   -2.0463    0.3676    0.0000 R   0  0  0  0  0  0  0  0  0  0  0  0
   -0.3141    0.3642    0.0000 C   0  0  0  0  0  0  0  0  0  0  0  0
   -0.3163   -0.6358    0.0000 C   0  0  0  0  0  0  0  0  0  0  0  0
    0.5487   -1.1374    0.0000 C   0  0  0  0  0  0  0  0  0  0  0  0
    0.5467   -2.1374    0.0000 O   0  0  0  0  0  0  0  0  0  0  0  0
    1.4117   -2.6392    0.0000 R   0  0  0  0  0  0  0  0  0  0  0  0
    0.5529    0.8624    0.0000 C   0  0  0  0  0  0  0  0  0  0  0  0
    1.4179    0.3608    0.0000 R   0  0  0  0  0  0  0  0  0  0  0  0
    0.5549    1.8624    0.0000 O   0  0  0  0  0  0  0  0  0  0  0  0
  1  2  1  0
  2  3  1  0
  2  4  1  0
  4  5  1  6
  5  6  1  0
  6  7  1  0
  7  8  1  0
  4  9  1  0
  9 10  1  0
  9 11  2  0
M  ISO  4   1   1   3   3   8   4  10   2
V    1 *
V    3 *
V    8 *
V   10 *
M  END
>  <symbol>  (598) 
hSer

>  <m_Rgroups>  (598) 
[H],[OH],[H],[H],None,None

>  <m_abbr>  (598) 
hSer

>  <m_name>  (598) 
L-Homoserine (2-amino-4-hydroxybutanoic acid)

>  <m_type>  (598) 
aa

>  <m_subtype>  (598) 
modified

>  <m_chem_types>  (598) 
1:backbone_n,2:backbone_c,3:backbone_n_mod,4:hydroxyl

$$$$

     RDKit          2D

 11 10  0  0  0  0  0  0  0  0999 V2000
   -1.1771    1.8660    0.0000 R   0  0  0  0  0  0  0  0  0  0  0  0
   -1.1791    0.8660    0.0000 N   0  0  0  0  0  0  0  0  0  0  0  0
   -2.0463    0.3676    0.0000 R   0  0  0  0  0  0  0  0  0  0  0  0
   -0.3141    0.3642    0.0000 C   0  0  0  0  0  0  0  0  0  0  0  0
   -0.3163   -0.6358    0.0000 C   0  0  0  0  0  0  0  0  0  0  0  0
    0.5487   -1.1374    0.0000 C   0  0  0  0  0  0  0  0  0  0  0  0
    0.5467   -2.1374    0.0000 S   0  0  0  0  0  0  0  0  0  0  0  0
    1.4117   -2.6392    0.0000 R   0  0  0  0  0  0  0  0  0  0  0  0
    0.5529    0.8624    0.0000 C   0  0  0  0  0  0  0  0  0  0  0  0
    1.4179    0.3608    0.0000 R   0  0  0  0  0  0  0  0  0  0  0  0
    0.5549    1.8624    0.0000 O   0  0  0  0  0  0  0  0  0  0  0  0
  1  2  1  0
  2  3  1  0
  2  4  1  0
  4  5  1  6
  5  6  1  0
  6  7  1  0
  7  8  1  0
  4  9  1  0
  9 10  1  0
  9 11  2  0
M  ISO  4   1   1   3   3   8   4  10   2
V    1 *
V    3 *
V    8 *
V   10 *
M  END
>  <symbol>  (599) 
hCys

>  <m_Rgroups>  (599) 
[H],[OH],[H],[H],None,None

>  <m_abbr>  (599) 
hCys

>  <m_name>  (599) 
L-Homocysteine

>  <m_type>  (599) 
aa

>  <m_subtype>  (599) 
modified

>  <m_chem_types>  (599) 
1:backbone_n,2:backbone_c,3:backbone_n_mod,4:thiol

$$$$

     RDKit          2D

 18 17  0  0  0  0  0  0  0  0999 V2000
   -1.9653    3.6426    0.0000 R   0  0  0  0  0  0  0  0  0  0  0  0
   -1.9673    2.6428    0.0000 N   0  0  0  0  0  0  0  0  0  0  0  0
   -2.8343    2.1444    0.0000 R   0  0  0  0  0  0  0  0  0  0  0  0
   -1.1023    2.1410    0.0000 C   0  0  0  0  0  0  0  0  0  0  0  0
   -1.1043    1.1410    0.0000 C   0  0  0  0  0  0  0  0  0  0  0  0
   -0.2393    0.6394    0.0000 C   0  0  0  0  0  0  0  0  0  0  0  0
   -0.2413   -0.3606    0.0000 C   0  0  0  0  0  0  0  0  0  0  0  0
    0.6237   -0.8624    0.0000 C   0  0  0  0  0  0  0  0  0  0  0  0
    0.6217   -1.8624    0.0000 N   0  0  0  0  0  0  0  0  0  0  0  0
   -0.2453   -2.3606    0.0000 R   0  0  0  0  0  0  0  0  0  0  0  0
    1.4867   -2.3640    0.0000 C   0  0  0  0  0  0  0  0  0  0  0  0
    2.3537   -1.8658    0.0000 O   0  0  0  0  0  0  0  0  0  0  0  0
    1.4847   -3.3640    0.0000 N   0  0  0  0  0  0  0  0  0  0  0  0
    2.3497   -3.8658    0.0000 R   0  0  0  0  0  0  0  0  0  0  0  0
    0.6177   -3.8624    0.0000 R   0  0  0  0  0  0  0  0  0  0  0  0
   -0.2353    2.6392    0.0000 C   0  0  0  0  0  0  0  0  0  0  0  0
    0.6297    2.1376    0.0000 R   0  0  0  0  0  0  0  0  0  0  0  0
   -0.2333    3.6392    0.0000 O   0  0  0  0  0  0  0  0  0  0  0  0
  1  2  1  0
  2  3  1  0
  2  4  1  0
  4  5  1  6
  5  6  1  0
  6  7  1  0
  7  8  1  0
  8  9  1  0
  9 10  1  0
  9 11  1  0
 11 12  2  0
 11 13  1  0
 13 14  1  0
 13 15  1  0
  4 16  1  0
 16 17  1  0
 16 18  2  0
M  ISO  6   1   1   3   3  10   5  14   4  15   6  17   2
V    1 *
V    3 *
V   10 *
V   14 *
V   15 *
V   17 *
M  END
>  <symbol>  (600) 
hCit

>  <m_Rgroups>  (600) 
[H],[OH],[H],[H],[H],[H]

>  <m_abbr>  (600) 
hCit

>  <m_name>  (600) 
L-Homocitrulline (Nomega-ureido)

>  <m_type>  (600) 
aa

>  <m_subtype>  (600) 
modified

>  <m_chem_types>  (600) 
1:backbone_n,2:backbone_c,3:backbone_n_mod,4:amine_primary,5:amide_nh,6:amine_secondary

$$$$

     RDKit          2D

 12 11  0  0  0  0  0  0  0  0999 V2000
   -1.1505    2.0855    0.0000 R   0  0  0  0  0  0  0  0  0  0  0  0
   -1.1525    1.0857    0.0000 N   0  0  0  0  0  0  0  0  0  0  0  0
   -2.0195    0.5873    0.0000 R   0  0  0  0  0  0  0  0  0  0  0  0
   -0.2875    0.5839    0.0000 C   0  0  0  0  0  0  0  0  0  0  0  0
   -0.2895   -0.4161    0.0000 C   0  0  0  0  0  0  0  0  0  0  0  0
    0.5755   -0.9177    0.0000 C   0  0  0  0  0  0  0  0  0  0  0  0
    0.5735   -1.9177    0.0000 C   0  0  0  0  0  0  0  0  0  0  0  0
    1.4385   -2.4195    0.0000 C   0  0  0  0  0  0  0  0  0  0  0  0
   -0.2935   -2.4161    0.0000 C   0  0  0  0  0  0  0  0  0  0  0  0
    0.5795    1.0821    0.0000 C   0  0  0  0  0  0  0  0  0  0  0  0
    1.4445    0.5805    0.0000 R   0  0  0  0  0  0  0  0  0  0  0  0
    0.5815    2.0821    0.0000 O   0  0  0  0  0  0  0  0  0  0  0  0
  1  2  1  0
  2  3  1  0
  2  4  1  0
  4  5  1  1
  5  6  1  0
  6  7  1  0
  7  8  1  0
  7  9  1  0
  4 10  1  0
 10 11  1  0
 10 12  2  0
M  ISO  3   1   1   3   3  11   2
V    1 *
V    3 *
V   11 *
M  END
>  <symbol>  (601) 
D_hLeu

>  <m_Rgroups>  (601) 
[H],[OH],[H],None,None,None

>  <m_abbr>  (601) 
D_hLeu

>  <m_name>  (601) 
D-Homoleucine

>  <m_type>  (601) 
aa

>  <m_subtype>  (601) 
modified

>  <m_chem_types>  (601) 
1:backbone_n,2:backbone_c,3:backbone_n_mod

$$$$

     RDKit          2D

 12 11  0  0  0  0  0  0  0  0999 V2000
   -1.2947    2.1692    0.0000 R   0  0  0  0  0  0  0  0  0  0  0  0
   -1.2967    1.1692    0.0000 N   0  0  0  0  0  0  0  0  0  0  0  0
   -2.1637    0.6710    0.0000 R   0  0  0  0  0  0  0  0  0  0  0  0
   -0.4317    0.6676    0.0000 C   0  0  0  0  0  0  0  0  0  0  0  0
   -0.4337   -0.3324    0.0000 C   0  0  0  0  0  0  0  0  0  0  0  0
    0.4313   -0.8342    0.0000 C   0  0  0  0  0  0  0  0  0  0  0  0
    0.4293   -1.8342    0.0000 C   0  0  0  0  0  0  0  0  0  0  0  0
    1.2943   -2.3358    0.0000 S   0  0  0  0  0  0  0  0  0  0  0  0
    1.2923   -3.3358    0.0000 C   0  0  0  0  0  0  0  0  0  0  0  0
    0.4353    1.1658    0.0000 C   0  0  0  0  0  0  0  0  0  0  0  0
    1.3005    0.6640    0.0000 R   0  0  0  0  0  0  0  0  0  0  0  0
    0.4375    2.1658    0.0000 O   0  0  0  0  0  0  0  0  0  0  0  0
  1  2  1  0
  2  3  1  0
  2  4  1  0
  4  5  1  1
  5  6  1  0
  6  7  1  0
  7  8  1  0
  8  9  1  0
  4 10  1  0
 10 11  1  0
 10 12  2  0
M  ISO  3   1   1   3   3  11   2
V    1 *
V    3 *
V   11 *
M  END
>  <symbol>  (602) 
D_hMet

>  <m_Rgroups>  (602) 
[H],[OH],[H],None,None,None

>  <m_abbr>  (602) 
D_hMet

>  <m_name>  (602) 
D-Homomethionine

>  <m_type>  (602) 
aa

>  <m_subtype>  (602) 
modified

>  <m_chem_types>  (602) 
1:backbone_n,2:backbone_c,3:backbone_n_mod

$$$$

     RDKit          2D

 12 11  0  0  0  0  0  0  0  0999 V2000
   -1.2952    1.9193    0.0000 R   0  0  0  0  0  0  0  0  0  0  0  0
   -1.2972    0.9193    0.0000 N   0  0  0  0  0  0  0  0  0  0  0  0
   -2.1642    0.4211    0.0000 R   0  0  0  0  0  0  0  0  0  0  0  0
   -0.4322    0.4175    0.0000 C   0  0  0  0  0  0  0  0  0  0  0  0
   -0.4342   -0.5825    0.0000 C   0  0  0  0  0  0  0  0  0  0  0  0
    0.4308   -1.0841    0.0000 C   0  0  0  0  0  0  0  0  0  0  0  0
    1.2978   -0.5859    0.0000 C   0  0  0  0  0  0  0  0  0  0  0  0
    0.4288   -2.0841    0.0000 C   0  0  0  0  0  0  0  0  0  0  0  0
    1.2938   -2.5859    0.0000 C   0  0  0  0  0  0  0  0  0  0  0  0
    0.4348    0.9159    0.0000 C   0  0  0  0  0  0  0  0  0  0  0  0
    1.2998    0.4141    0.0000 R   0  0  0  0  0  0  0  0  0  0  0  0
    0.4368    1.9157    0.0000 O   0  0  0  0  0  0  0  0  0  0  0  0
  1  2  1  0
  2  3  1  0
  2  4  1  0
  4  5  1  1
  5  6  1  0
  6  7  1  0
  6  8  1  0
  8  9  1  0
  4 10  1  0
 10 11  1  0
 10 12  2  0
M  ISO  3   1   1   3   3  11   2
V    1 *
V    3 *
V   11 *
M  END
>  <symbol>  (603) 
D_hIle

>  <m_Rgroups>  (603) 
[H],[OH],[H],None,None,None

>  <m_abbr>  (603) 
D_hIle

>  <m_name>  (603) 
D-Homoisoleucine

>  <m_type>  (603) 
aa

>  <m_subtype>  (603) 
modified

>  <m_chem_types>  (603) 
1:backbone_n,2:backbone_c,3:backbone_n_mod

$$$$

     RDKit          2D

 12 11  0  0  0  0  0  0  0  0999 V2000
   -1.2947    2.1692    0.0000 R   0  0  0  0  0  0  0  0  0  0  0  0
   -1.2967    1.1692    0.0000 N   0  0  0  0  0  0  0  0  0  0  0  0
   -2.1637    0.6710    0.0000 R   0  0  0  0  0  0  0  0  0  0  0  0
   -0.4317    0.6676    0.0000 C   0  0  0  0  0  0  0  0  0  0  0  0
   -0.4337   -0.3324    0.0000 C   0  0  0  0  0  0  0  0  0  0  0  0
    0.4313   -0.8342    0.0000 C   0  0  0  0  0  0  0  0  0  0  0  0
    0.4293   -1.8342    0.0000 C   0  0  0  0  0  0  0  0  0  0  0  0
    1.2943   -2.3358    0.0000 C   0  0  0  0  0  0  0  0  0  0  0  0
    1.2923   -3.3358    0.0000 C   0  0  0  0  0  0  0  0  0  0  0  0
    0.4353    1.1658    0.0000 C   0  0  0  0  0  0  0  0  0  0  0  0
    1.3005    0.6640    0.0000 R   0  0  0  0  0  0  0  0  0  0  0  0
    0.4375    2.1658    0.0000 O   0  0  0  0  0  0  0  0  0  0  0  0
  1  2  1  0
  2  3  1  0
  2  4  1  0
  4  5  1  1
  5  6  1  0
  6  7  1  0
  7  8  1  0
  8  9  1  0
  4 10  1  0
 10 11  1  0
 10 12  2  0
M  ISO  3   1   1   3   3  11   2
V    1 *
V    3 *
V   11 *
M  END
>  <symbol>  (604) 
D_hNle

>  <m_Rgroups>  (604) 
[H],[OH],[H],None,None,None

>  <m_abbr>  (604) 
D_hNle

>  <m_name>  (604) 
D-Homonorleucine

>  <m_type>  (604) 
aa

>  <m_subtype>  (604) 
modified

>  <m_chem_types>  (604) 
1:backbone_n,2:backbone_c,3:backbone_n_mod

$$$$

     RDKit          2D

 11 10  0  0  0  0  0  0  0  0999 V2000
   -1.1771    1.8660    0.0000 R   0  0  0  0  0  0  0  0  0  0  0  0
   -1.1791    0.8660    0.0000 N   0  0  0  0  0  0  0  0  0  0  0  0
   -2.0463    0.3676    0.0000 R   0  0  0  0  0  0  0  0  0  0  0  0
   -0.3141    0.3642    0.0000 C   0  0  0  0  0  0  0  0  0  0  0  0
   -0.3163   -0.6358    0.0000 C   0  0  0  0  0  0  0  0  0  0  0  0
    0.5487   -1.1374    0.0000 C   0  0  0  0  0  0  0  0  0  0  0  0
    0.5467   -2.1374    0.0000 O   0  0  0  0  0  0  0  0  0  0  0  0
    1.4117   -2.6392    0.0000 R   0  0  0  0  0  0  0  0  0  0  0  0
    0.5529    0.8624    0.0000 C   0  0  0  0  0  0  0  0  0  0  0  0
    1.4179    0.3608    0.0000 R   0  0  0  0  0  0  0  0  0  0  0  0
    0.5549    1.8624    0.0000 O   0  0  0  0  0  0  0  0  0  0  0  0
  1  2  1  0
  2  3  1  0
  2  4  1  0
  4  5  1  1
  5  6  1  0
  6  7  1  0
  7  8  1  0
  4  9  1  0
  9 10  1  0
  9 11  2  0
M  ISO  4   1   1   3   3   8   4  10   2
V    1 *
V    3 *
V    8 *
V   10 *
M  END
>  <symbol>  (605) 
D_hSer

>  <m_Rgroups>  (605) 
[H],[OH],[H],[H],None,None

>  <m_abbr>  (605) 
D_hSer

>  <m_name>  (605) 
D-Homoserine

>  <m_type>  (605) 
aa

>  <m_subtype>  (605) 
modified

>  <m_chem_types>  (605) 
1:backbone_n,2:backbone_c,3:backbone_n_mod,4:hydroxyl

$$$$

     RDKit          2D

 11 10  0  0  0  0  0  0  0  0999 V2000
   -1.1771    1.8660    0.0000 R   0  0  0  0  0  0  0  0  0  0  0  0
   -1.1791    0.8660    0.0000 N   0  0  0  0  0  0  0  0  0  0  0  0
   -2.0463    0.3676    0.0000 R   0  0  0  0  0  0  0  0  0  0  0  0
   -0.3141    0.3642    0.0000 C   0  0  0  0  0  0  0  0  0  0  0  0
   -0.3163   -0.6358    0.0000 C   0  0  0  0  0  0  0  0  0  0  0  0
    0.5487   -1.1374    0.0000 C   0  0  0  0  0  0  0  0  0  0  0  0
    0.5467   -2.1374    0.0000 S   0  0  0  0  0  0  0  0  0  0  0  0
    1.4117   -2.6392    0.0000 R   0  0  0  0  0  0  0  0  0  0  0  0
    0.5529    0.8624    0.0000 C   0  0  0  0  0  0  0  0  0  0  0  0
    1.4179    0.3608    0.0000 R   0  0  0  0  0  0  0  0  0  0  0  0
    0.5549    1.8624    0.0000 O   0  0  0  0  0  0  0  0  0  0  0  0
  1  2  1  0
  2  3  1  0
  2  4  1  0
  4  5  1  1
  5  6  1  0
  6  7  1  0
  7  8  1  0
  4  9  1  0
  9 10  1  0
  9 11  2  0
M  ISO  4   1   1   3   3   8   4  10   2
V    1 *
V    3 *
V    8 *
V   10 *
M  END
>  <symbol>  (606) 
D_hCys

>  <m_Rgroups>  (606) 
[H],[OH],[H],[H],None,None

>  <m_abbr>  (606) 
D_hCys

>  <m_name>  (606) 
D-Homocysteine

>  <m_type>  (606) 
aa

>  <m_subtype>  (606) 
modified

>  <m_chem_types>  (606) 
1:backbone_n,2:backbone_c,3:backbone_n_mod,4:thiol

$$$$

     RDKit          2D

 11 10  0  0  0  0  0  0  0  0999 V2000
   -1.1775    1.6841    0.0000 R   0  0  0  0  0  0  0  0  0  0  0  0
   -1.1795    0.6841    0.0000 N   0  0  0  0  0  0  0  0  0  0  0  0
   -2.0465    0.1859    0.0000 R   0  0  0  0  0  0  0  0  0  0  0  0
   -0.3145    0.1825    0.0000 C   0  0  0  0  0  0  0  0  0  0  0  0
   -0.3165   -0.8175    0.0000 C   0  0  0  0  0  0  0  0  0  0  0  0
    0.5485   -1.3193    0.0000 C   0  0  0  0  0  0  0  0  0  0  0  0
    0.5465   -2.3193    0.0000 R   0  0  0  0  0  0  0  0  0  0  0  0
    1.4155   -0.8209    0.0000 C   0  0  0  0  0  0  0  0  0  0  0  0
    0.5525    0.6807    0.0000 C   0  0  0  0  0  0  0  0  0  0  0  0
    1.4175    0.1789    0.0000 R   0  0  0  0  0  0  0  0  0  0  0  0
    0.5545    1.6807    0.0000 O   0  0  0  0  0  0  0  0  0  0  0  0
  1  2  1  0
  2  3  1  0
  2  4  1  0
  4  5  1  6
  5  6  1  0
  6  7  1  0
  6  8  2  0
  4  9  1  0
  9 10  1  0
  9 11  2  0
M  ISO  4   1   1   3   3   7   4  10   2
V    1 *
V    3 *
V    7 *
V   10 *
M  END
>  <symbol>  (607) 
AllGly

>  <m_Rgroups>  (607) 
[H],[OH],[H],[H],None,None

>  <m_abbr>  (607) 
AllGly

>  <m_name>  (607) 
L-Allylglycine (2-amino-4-pentenoic acid)

>  <m_type>  (607) 
aa

>  <m_subtype>  (607) 
modified

>  <m_chem_types>  (607) 
1:backbone_n,2:backbone_c,3:backbone_n_mod,4:terminal_alkene

$$$$

     RDKit          2D

 11 10  0  0  0  0  0  0  0  0999 V2000
   -1.1775    1.6841    0.0000 R   0  0  0  0  0  0  0  0  0  0  0  0
   -1.1795    0.6841    0.0000 N   0  0  0  0  0  0  0  0  0  0  0  0
   -2.0465    0.1859    0.0000 R   0  0  0  0  0  0  0  0  0  0  0  0
   -0.3145    0.1825    0.0000 C   0  0  0  0  0  0  0  0  0  0  0  0
   -0.3165   -0.8175    0.0000 C   0  0  0  0  0  0  0  0  0  0  0  0
    0.5485   -1.3193    0.0000 C   0  0  0  0  0  0  0  0  0  0  0  0
    0.5465   -2.3193    0.0000 R   0  0  0  0  0  0  0  0  0  0  0  0
    1.4155   -0.8209    0.0000 C   0  0  0  0  0  0  0  0  0  0  0  0
    0.5525    0.6807    0.0000 C   0  0  0  0  0  0  0  0  0  0  0  0
    1.4175    0.1789    0.0000 R   0  0  0  0  0  0  0  0  0  0  0  0
    0.5545    1.6807    0.0000 O   0  0  0  0  0  0  0  0  0  0  0  0
  1  2  1  0
  2  3  1  0
  2  4  1  0
  4  5  1  1
  5  6  1  0
  6  7  1  0
  6  8  2  0
  4  9  1  0
  9 10  1  0
  9 11  2  0
M  ISO  4   1   1   3   3   7   4  10   2
V    1 *
V    3 *
V    7 *
V   10 *
M  END
>  <symbol>  (608) 
D_AllGly

>  <m_Rgroups>  (608) 
[H],[OH],[H],[H],None,None

>  <m_abbr>  (608) 
D_AllGly

>  <m_name>  (608) 
D-Allylglycine

>  <m_type>  (608) 
aa

>  <m_subtype>  (608) 
modified

>  <m_chem_types>  (608) 
1:backbone_n,2:backbone_c,3:backbone_n_mod,4:terminal_alkene

$$$$

     RDKit          2D

 10  9  0  0  0  0  0  0  0  0999 V2000
   -1.1226    1.5522    0.0000 R   0  0  0  0  0  0  0  0  0  0  0  0
   -1.1248    0.5522    0.0000 N   0  0  0  0  0  0  0  0  0  0  0  0
   -1.9918    0.0540    0.0000 R   0  0  0  0  0  0  0  0  0  0  0  0
   -0.2598    0.0506    0.0000 C   0  0  0  0  0  0  0  0  0  0  0  0
   -0.2618   -0.9494    0.0000 C   0  0  0  0  0  0  0  0  0  0  0  0
    0.6032   -1.4512    0.0000 C   0  0  0  0  0  0  0  0  0  0  0  0
    1.4682   -1.9528    0.0000 N   0  0  0  0  0  0  0  0  0  0  0  0
    0.6074    0.5488    0.0000 C   0  0  0  0  0  0  0  0  0  0  0  0
    1.4724    0.0470    0.0000 R   0  0  0  0  0  0  0  0  0  0  0  0
    0.6094    1.5488    0.0000 O   0  0  0  0  0  0  0  0  0  0  0  0
  1  2  1  0
  2  3  1  0
  2  4  1  0
  4  5  1  6
  5  6  1  0
  6  7  3  0
  4  8  1  0
  8  9  1  0
  8 10  2  0
M  ISO  3   1   1   3   3   9   2
V    1 *
V    3 *
V    9 *
M  END
>  <symbol>  (609) 
CyanoAla

>  <m_Rgroups>  (609) 
[H],[OH],[H],None,None,None

>  <m_abbr>  (609) 
CyanoAla

>  <m_name>  (609) 
L-3-Cyanoalanine (beta-cyanoalanine)

>  <m_type>  (609) 
aa

>  <m_subtype>  (609) 
modified

>  <m_chem_types>  (609) 
1:backbone_n,2:backbone_c,3:backbone_n_mod

$$$$

     RDKit          2D

 14 13  0  0  0  0  0  0  0  0999 V2000
   -1.3554   -2.6455    0.0000 R   0  0  0  0  0  0  0  0  0  0  0  0
   -1.3576   -1.6455    0.0000 N   0  0  0  0  0  0  0  0  0  0  0  0
   -2.2246   -1.1473    0.0000 R   0  0  0  0  0  0  0  0  0  0  0  0
   -0.4926   -1.1439    0.0000 C   0  0  0  0  0  0  0  0  0  0  0  0
   -0.4946   -0.1439    0.0000 C   0  0  0  0  0  0  0  0  0  0  0  0
    0.3704    0.3579    0.0000 C   0  0  0  0  0  0  0  0  0  0  0  0
    0.3684    1.3579    0.0000 C   0  0  0  0  0  0  0  0  0  0  0  0
   -0.4986    1.8561    0.0000 R   0  0  0  0  0  0  0  0  0  0  0  0
    1.2334    1.8595    0.0000 N   0  0  0  0  0  0  0  0  0  0  0  0
    1.2314    2.8595    0.0000 N   0  0  0  0  0  0  0  0  0  0  0  0
    1.2294    3.8595    0.0000 N   0  0  0  0  0  0  0  0  0  0  0  0
    0.3746   -1.6421    0.0000 C   0  0  0  0  0  0  0  0  0  0  0  0
    1.2396   -1.1405    0.0000 R   0  0  0  0  0  0  0  0  0  0  0  0
    0.3766   -2.6421    0.0000 O   0  0  0  0  0  0  0  0  0  0  0  0
  1  2  1  0
  2  3  1  0
  2  4  1  0
  4  5  1  1
  5  6  1  0
  6  7  1  0
  7  8  1  0
  7  9  1  0
  9 10  2  0
 10 11  2  0
  4 12  1  0
 12 13  1  0
 12 14  2  0
M  CHG  2  10   1  11  -1
M  ISO  4   1   1   3   3   8   4  13   2
V    1 *
V    3 *
V    8 *
V   13 *
M  END
>  <symbol>  (610) 
AzOrn

>  <m_Rgroups>  (610) 
[H],[OH],[H],[H],None,None

>  <m_abbr>  (610) 
AzOrn

>  <m_name>  (610) 
L-delta-Azidoornithine

>  <m_type>  (610) 
aa

>  <m_subtype>  (610) 
modified

>  <m_chem_types>  (610) 
1:backbone_n,2:backbone_c,3:backbone_n_mod,4:azide_alpha_c

$$$$

     RDKit          2D

 14 13  0  0  0  0  0  0  0  0999 V2000
   -1.3554   -2.6455    0.0000 R   0  0  0  0  0  0  0  0  0  0  0  0
   -1.3576   -1.6455    0.0000 N   0  0  0  0  0  0  0  0  0  0  0  0
   -2.2246   -1.1473    0.0000 R   0  0  0  0  0  0  0  0  0  0  0  0
   -0.4926   -1.1439    0.0000 C   0  0  0  0  0  0  0  0  0  0  0  0
   -0.4946   -0.1439    0.0000 C   0  0  0  0  0  0  0  0  0  0  0  0
    0.3704    0.3579    0.0000 C   0  0  0  0  0  0  0  0  0  0  0  0
    0.3684    1.3579    0.0000 C   0  0  0  0  0  0  0  0  0  0  0  0
   -0.4986    1.8561    0.0000 R   0  0  0  0  0  0  0  0  0  0  0  0
    1.2334    1.8595    0.0000 N   0  0  0  0  0  0  0  0  0  0  0  0
    1.2314    2.8595    0.0000 N   0  0  0  0  0  0  0  0  0  0  0  0
    1.2294    3.8595    0.0000 N   0  0  0  0  0  0  0  0  0  0  0  0
    0.3746   -1.6421    0.0000 C   0  0  0  0  0  0  0  0  0  0  0  0
    1.2396   -1.1405    0.0000 R   0  0  0  0  0  0  0  0  0  0  0  0
    0.3766   -2.6421    0.0000 O   0  0  0  0  0  0  0  0  0  0  0  0
  1  2  1  0
  2  3  1  0
  2  4  1  0
  4  5  1  6
  5  6  1  0
  6  7  1  0
  7  8  1  0
  7  9  1  0
  9 10  2  0
 10 11  2  0
  4 12  1  0
 12 13  1  0
 12 14  2  0
M  CHG  2  10   1  11  -1
M  ISO  4   1   1   3   3   8   4  13   2
V    1 *
V    3 *
V    8 *
V   13 *
M  END
>  <symbol>  (611) 
D_AzOrn

>  <m_Rgroups>  (611) 
[H],[OH],[H],[H],None,None

>  <m_abbr>  (611) 
D_AzOrn

>  <m_name>  (611) 
D-delta-Azidoornithine

>  <m_type>  (611) 
aa

>  <m_subtype>  (611) 
modified

>  <m_chem_types>  (611) 
1:backbone_n,2:backbone_c,3:backbone_n_mod,4:azide_alpha_c

$$$$

     RDKit          2D

 15 14  0  0  0  0  0  0  0  0999 V2000
   -1.7841   -2.8369    0.0000 R   0  0  0  0  0  0  0  0  0  0  0  0
   -1.7861   -1.8369    0.0000 N   0  0  0  0  0  0  0  0  0  0  0  0
   -2.6531   -1.3387    0.0000 R   0  0  0  0  0  0  0  0  0  0  0  0
   -0.9211   -1.3351    0.0000 C   0  0  0  0  0  0  0  0  0  0  0  0
   -0.9231   -0.3353    0.0000 C   0  0  0  0  0  0  0  0  0  0  0  0
   -0.0581    0.1665    0.0000 C   0  0  0  0  0  0  0  0  0  0  0  0
   -0.0601    1.1665    0.0000 C   0  0  0  0  0  0  0  0  0  0  0  0
    0.8049    1.6683    0.0000 C   0  0  0  0  0  0  0  0  0  0  0  0
    1.6719    1.1699    0.0000 R   0  0  0  0  0  0  0  0  0  0  0  0
    0.8029    2.6681    0.0000 N   0  0  0  0  0  0  0  0  0  0  0  0
    1.6679    3.1699    0.0000 N   0  0  0  0  0  0  0  0  0  0  0  0
    2.5329    3.6717    0.0000 N   0  0  0  0  0  0  0  0  0  0  0  0
   -0.0541   -1.8335    0.0000 C   0  0  0  0  0  0  0  0  0  0  0  0
    0.8109   -1.3317    0.0000 R   0  0  0  0  0  0  0  0  0  0  0  0
   -0.0521   -2.8335    0.0000 O   0  0  0  0  0  0  0  0  0  0  0  0
  1  2  1  0
  2  3  1  0
  2  4  1  0
  4  5  1  1
  5  6  1  0
  6  7  1  0
  7  8  1  0
  8  9  1  0
  8 10  1  0
 10 11  2  0
 11 12  2  0
  4 13  1  0
 13 14  1  0
 13 15  2  0
M  CHG  2  11   1  12  -1
M  ISO  4   1   1   3   3   9   4  14   2
V    1 *
V    3 *
V    9 *
V   14 *
M  END
>  <symbol>  (612) 
AzNva

>  <m_Rgroups>  (612) 
[H],[OH],[H],[H],None,None

>  <m_abbr>  (612) 
AzNva

>  <m_name>  (612) 
L-epsilon-Azido-norvaline (5-azido)

>  <m_type>  (612) 
aa

>  <m_subtype>  (612) 
modified

>  <m_chem_types>  (612) 
1:backbone_n,2:backbone_c,3:backbone_n_mod,4:azide_alpha_c

$$$$

     RDKit          2D

 15 14  0  0  0  0  0  0  0  0999 V2000
   -1.7841   -2.8369    0.0000 R   0  0  0  0  0  0  0  0  0  0  0  0
   -1.7861   -1.8369    0.0000 N   0  0  0  0  0  0  0  0  0  0  0  0
   -2.6531   -1.3387    0.0000 R   0  0  0  0  0  0  0  0  0  0  0  0
   -0.9211   -1.3351    0.0000 C   0  0  0  0  0  0  0  0  0  0  0  0
   -0.9231   -0.3353    0.0000 C   0  0  0  0  0  0  0  0  0  0  0  0
   -0.0581    0.1665    0.0000 C   0  0  0  0  0  0  0  0  0  0  0  0
   -0.0601    1.1665    0.0000 C   0  0  0  0  0  0  0  0  0  0  0  0
    0.8049    1.6683    0.0000 C   0  0  0  0  0  0  0  0  0  0  0  0
    1.6719    1.1699    0.0000 R   0  0  0  0  0  0  0  0  0  0  0  0
    0.8029    2.6681    0.0000 N   0  0  0  0  0  0  0  0  0  0  0  0
    1.6679    3.1699    0.0000 N   0  0  0  0  0  0  0  0  0  0  0  0
    2.5329    3.6717    0.0000 N   0  0  0  0  0  0  0  0  0  0  0  0
   -0.0541   -1.8335    0.0000 C   0  0  0  0  0  0  0  0  0  0  0  0
    0.8109   -1.3317    0.0000 R   0  0  0  0  0  0  0  0  0  0  0  0
   -0.0521   -2.8335    0.0000 O   0  0  0  0  0  0  0  0  0  0  0  0
  1  2  1  0
  2  3  1  0
  2  4  1  0
  4  5  1  6
  5  6  1  0
  6  7  1  0
  7  8  1  0
  8  9  1  0
  8 10  1  0
 10 11  2  0
 11 12  2  0
  4 13  1  0
 13 14  1  0
 13 15  2  0
M  CHG  2  11   1  12  -1
M  ISO  4   1   1   3   3   9   4  14   2
V    1 *
V    3 *
V    9 *
V   14 *
M  END
>  <symbol>  (613) 
D_AzNva

>  <m_Rgroups>  (613) 
[H],[OH],[H],[H],None,None

>  <m_abbr>  (613) 
D_AzNva

>  <m_name>  (613) 
D-epsilon-Azido-norvaline

>  <m_type>  (613) 
aa

>  <m_subtype>  (613) 
modified

>  <m_chem_types>  (613) 
1:backbone_n,2:backbone_c,3:backbone_n_mod,4:azide_alpha_c

$$$$

     RDKit          2D

 13 12  0  0  0  0  0  0  0  0999 V2000
   -1.4606    2.4643    0.0000 R   0  0  0  0  0  0  0  0  0  0  0  0
   -1.4626    1.4643    0.0000 N   0  0  0  0  0  0  0  0  0  0  0  0
   -2.3298    0.9661    0.0000 R   0  0  0  0  0  0  0  0  0  0  0  0
   -0.5976    0.9627    0.0000 C   0  0  0  0  0  0  0  0  0  0  0  0
   -0.5996   -0.0373    0.0000 C   0  0  0  0  0  0  0  0  0  0  0  0
    0.2654   -0.5391    0.0000 C   0  0  0  0  0  0  0  0  0  0  0  0
    0.2634   -1.5389    0.0000 C   0  0  0  0  0  0  0  0  0  0  0  0
    1.1284   -2.0407    0.0000 C   0  0  0  0  0  0  0  0  0  0  0  0
    1.1262   -3.0407    0.0000 N   0  0  0  0  0  0  0  0  0  0  0  0
    1.9912   -3.5423    0.0000 C   0  0  0  0  0  0  0  0  0  0  0  0
    0.2694    1.4609    0.0000 C   0  0  0  0  0  0  0  0  0  0  0  0
    1.1344    0.9593    0.0000 R   0  0  0  0  0  0  0  0  0  0  0  0
    0.2714    2.4609    0.0000 O   0  0  0  0  0  0  0  0  0  0  0  0
  1  2  1  0
  2  3  1  0
  2  4  1  0
  4  5  1  6
  5  6  1  0
  6  7  1  0
  7  8  1  0
  8  9  1  0
  9 10  1  0
  4 11  1  0
 11 12  1  0
 11 13  2  0
M  ISO  3   1   1   3   3  12   2
V    1 *
V    3 *
V   12 *
M  END
>  <symbol>  (614) 
Lys_5Me

>  <m_Rgroups>  (614) 
[H],[OH],[H],None,None,None

>  <m_abbr>  (614) 
Lys_5Me

>  <m_name>  (614) 
N-epsilon-methyl-L-lysine

>  <m_type>  (614) 
aa

>  <m_subtype>  (614) 
modified

>  <m_chem_types>  (614) 
1:backbone_n,2:backbone_c,3:backbone_n_mod

$$$$

     RDKit          2D

 14 13  0  0  0  0  0  0  0  0999 V2000
   -1.4790    2.7172    0.0000 R   0  0  0  0  0  0  0  0  0  0  0  0
   -1.4812    1.7172    0.0000 N   0  0  0  0  0  0  0  0  0  0  0  0
   -2.3482    1.2190    0.0000 R   0  0  0  0  0  0  0  0  0  0  0  0
   -0.6162    1.2156    0.0000 C   0  0  0  0  0  0  0  0  0  0  0  0
   -0.6182    0.2156    0.0000 C   0  0  0  0  0  0  0  0  0  0  0  0
    0.2468   -0.2862    0.0000 C   0  0  0  0  0  0  0  0  0  0  0  0
    0.2448   -1.2862    0.0000 C   0  0  0  0  0  0  0  0  0  0  0  0
    1.1098   -1.7878    0.0000 C   0  0  0  0  0  0  0  0  0  0  0  0
    1.1078   -2.7878    0.0000 N   0  0  0  0  0  0  0  0  0  0  0  0
    1.9728   -3.2896    0.0000 C   0  0  0  0  0  0  0  0  0  0  0  0
    0.2408   -3.2860    0.0000 C   0  0  0  0  0  0  0  0  0  0  0  0
    0.2510    1.7138    0.0000 C   0  0  0  0  0  0  0  0  0  0  0  0
    1.1160    1.2120    0.0000 R   0  0  0  0  0  0  0  0  0  0  0  0
    0.2530    2.7138    0.0000 O   0  0  0  0  0  0  0  0  0  0  0  0
  1  2  1  0
  2  3  1  0
  2  4  1  0
  4  5  1  6
  5  6  1  0
  6  7  1  0
  7  8  1  0
  8  9  1  0
  9 10  1  0
  9 11  1  0
  4 12  1  0
 12 13  1  0
 12 14  2  0
M  ISO  3   1   1   3   3  13   2
V    1 *
V    3 *
V   13 *
M  END
>  <symbol>  (615) 
Lys_5diMe

>  <m_Rgroups>  (615) 
[H],[OH],[H],None,None,None

>  <m_abbr>  (615) 
Lys_5diMe

>  <m_name>  (615) 
N-epsilon,epsilon-dimethyl-L-lysine

>  <m_type>  (615) 
aa

>  <m_subtype>  (615) 
modified

>  <m_chem_types>  (615) 
1:backbone_n,2:backbone_c,3:backbone_n_mod

$$$$

     RDKit          2D

 22 22  0  0  0  0  0  0  0  0999 V2000
   -2.7071    4.4826    0.0000 R   0  0  0  0  0  0  0  0  0  0  0  0
   -2.7091    3.4826    0.0000 N   0  0  0  0  0  0  0  0  0  0  0  0
   -3.5761    2.9844    0.0000 R   0  0  0  0  0  0  0  0  0  0  0  0
   -1.8441    2.9808    0.0000 C   0  0  0  0  0  0  0  0  0  0  0  0
   -1.8461    1.9808    0.0000 C   0  0  0  0  0  0  0  0  0  0  0  0
   -0.9811    1.4792    0.0000 C   0  0  0  0  0  0  0  0  0  0  0  0
   -0.9831    0.4792    0.0000 C   0  0  0  0  0  0  0  0  0  0  0  0
   -0.1181   -0.0226    0.0000 C   0  0  0  0  0  0  0  0  0  0  0  0
   -0.1201   -1.0226    0.0000 N   0  0  0  0  0  0  0  0  0  0  0  0
   -0.9871   -1.5208    0.0000 R   0  0  0  0  0  0  0  0  0  0  0  0
    0.7449   -1.5242    0.0000 C   0  0  0  0  0  0  0  0  0  0  0  0
    1.6119   -1.0260    0.0000 O   0  0  0  0  0  0  0  0  0  0  0  0
    0.7429   -2.5242    0.0000 O   0  0  0  0  0  0  0  0  0  0  0  0
    1.6079   -3.0258    0.0000 C   0  0  0  0  0  0  0  0  0  0  0  0
    1.6059   -4.0258    0.0000 C   0  0  0  0  0  0  0  0  0  0  0  0
    2.4709   -4.5276    0.0000 C   0  0  0  0  0  0  0  0  0  0  0  0
    3.3379   -4.0294    0.0000 C   0  0  0  0  0  0  0  0  0  0  0  0
    3.3399   -3.0294    0.0000 C   0  0  0  0  0  0  0  0  0  0  0  0
    2.4749   -2.5276    0.0000 C   0  0  0  0  0  0  0  0  0  0  0  0
   -0.9771    3.4792    0.0000 C   0  0  0  0  0  0  0  0  0  0  0  0
   -0.1121    2.9774    0.0000 R   0  0  0  0  0  0  0  0  0  0  0  0
   -0.9751    4.4790    0.0000 O   0  0  0  0  0  0  0  0  0  0  0  0
  1  2  1  0
  2  3  1  0
  2  4  1  0
  4  5  1  6
  5  6  1  0
  6  7  1  0
  7  8  1  0
  8  9  1  0
  9 10  1  0
  9 11  1  0
 11 12  2  0
 11 13  1  0
 13 14  1  0
 14 15  2  0
 15 16  1  0
 16 17  2  0
 17 18  1  0
 18 19  2  0
  4 20  1  0
 20 21  1  0
 20 22  2  0
 19 14  1  0
M  ISO  4   1   1   3   3  10   4  21   2
V    1 *
V    3 *
V   10 *
V   21 *
M  END
>  <symbol>  (616) 
Lys_Cbz

>  <m_Rgroups>  (616) 
[H],[OH],[H],[H],None,None

>  <m_abbr>  (616) 
Lys_Cbz

>  <m_name>  (616) 
N-epsilon-Cbz-L-lysine

>  <m_type>  (616) 
aa

>  <m_subtype>  (616) 
modified

>  <m_chem_types>  (616) 
1:backbone_n,2:backbone_c,3:backbone_n_mod,4:amide_nh

$$$$

     RDKit          2D

 21 21  0  0  0  0  0  0  0  0999 V2000
   -2.1357   -4.2900    0.0000 R   0  0  0  0  0  0  0  0  0  0  0  0
   -2.1377   -3.2900    0.0000 N   0  0  0  0  0  0  0  0  0  0  0  0
   -3.0049   -2.7916    0.0000 R   0  0  0  0  0  0  0  0  0  0  0  0
   -1.2727   -2.7882    0.0000 C   0  0  0  0  0  0  0  0  0  0  0  0
   -1.2747   -1.7882    0.0000 C   0  0  0  0  0  0  0  0  0  0  0  0
   -0.4097   -1.2866    0.0000 C   0  0  0  0  0  0  0  0  0  0  0  0
   -0.4117   -0.2866    0.0000 C   0  0  0  0  0  0  0  0  0  0  0  0
    0.4533    0.2152    0.0000 N   0  0  0  0  0  0  0  0  0  0  0  0
    1.3203   -0.2830    0.0000 R   0  0  0  0  0  0  0  0  0  0  0  0
    0.4511    1.2152    0.0000 C   0  0  0  0  0  0  0  0  0  0  0  0
   -0.4159    1.7134    0.0000 O   0  0  0  0  0  0  0  0  0  0  0  0
    1.3161    1.7168    0.0000 O   0  0  0  0  0  0  0  0  0  0  0  0
    1.3141    2.7168    0.0000 C   0  0  0  0  0  0  0  0  0  0  0  0
    0.4471    3.2150    0.0000 C   0  0  0  0  0  0  0  0  0  0  0  0
    0.4453    4.2150    0.0000 C   0  0  0  0  0  0  0  0  0  0  0  0
    1.3101    4.7168    0.0000 C   0  0  0  0  0  0  0  0  0  0  0  0
    2.1773    4.2186    0.0000 C   0  0  0  0  0  0  0  0  0  0  0  0
    2.1791    3.2186    0.0000 C   0  0  0  0  0  0  0  0  0  0  0  0
   -0.4057   -3.2864    0.0000 C   0  0  0  0  0  0  0  0  0  0  0  0
    0.4593   -2.7848    0.0000 R   0  0  0  0  0  0  0  0  0  0  0  0
   -0.4037   -4.2864    0.0000 O   0  0  0  0  0  0  0  0  0  0  0  0
  1  2  1  0
  2  3  1  0
  2  4  1  0
  4  5  1  1
  5  6  1  0
  6  7  1  0
  7  8  1  0
  8  9  1  0
  8 10  1  0
 10 11  2  0
 10 12  1  0
 12 13  1  0
 13 14  2  0
 14 15  1  0
 15 16  2  0
 16 17  1  0
 17 18  2  0
  4 19  1  0
 19 20  1  0
 19 21  2  0
 18 13  1  0
M  ISO  4   1   1   3   3   9   4  20   2
V    1 *
V    3 *
V    9 *
V   20 *
M  END
>  <symbol>  (617) 
Orn_Cbz

>  <m_Rgroups>  (617) 
[H],[OH],[H],[H],None,None

>  <m_abbr>  (617) 
Orn_Cbz

>  <m_name>  (617) 
N-delta-Cbz-L-ornithine

>  <m_type>  (617) 
aa

>  <m_subtype>  (617) 
modified

>  <m_chem_types>  (617) 
1:backbone_n,2:backbone_c,3:backbone_n_mod,4:amide_nh

$$$$

     RDKit          2D

 12 11  0  0  0  0  0  0  0  0999 V2000
   -1.8009   -0.1433    0.0000 R   0  0  0  0  0  0  0  0  0  0  0  0
   -1.0937    0.5637    0.0000 N   0  0  0  0  0  0  0  0  0  0  0  0
   -1.3523    1.5297    0.0000 R   0  0  0  0  0  0  0  0  0  0  0  0
   -0.1278    0.3047    0.0000 C   0  0  0  0  0  0  0  0  0  0  0  0
   -0.3864    1.2705    0.0000 C   0  0  0  0  0  0  0  0  0  0  0  0
   -0.3868   -0.6613    0.0000 C   0  0  0  0  0  0  0  0  0  0  0  0
    0.3202   -1.3685    0.0000 C   0  0  0  0  0  0  0  0  0  0  0  0
    0.0612   -2.3343    0.0000 R   0  0  0  0  0  0  0  0  0  0  0  0
    1.2862   -1.1099    0.0000 C   0  0  0  0  0  0  0  0  0  0  0  0
    0.8381    0.5633    0.0000 C   0  0  0  0  0  0  0  0  0  0  0  0
    1.5451   -0.1439    0.0000 R   0  0  0  0  0  0  0  0  0  0  0  0
    1.0971    1.5291    0.0000 O   0  0  0  0  0  0  0  0  0  0  0  0
  1  2  1  0
  2  3  1  0
  2  4  1  0
  4  5  1  1
  4  6  1  0
  6  7  1  0
  7  8  1  0
  7  9  2  0
  4 10  1  0
 10 11  1  0
 10 12  2  0
M  ISO  4   1   1   3   3   8   4  11   2
V    1 *
V    3 *
V    8 *
V   11 *
M  END
>  <symbol>  (618) 
S3

>  <m_Rgroups>  (618) 
[H],[OH],[H],[H],None,None

>  <m_abbr>  (618) 
S3

>  <m_name>  (618) 
(S)-alpha-Me-allylglycine (i,i+3 RCM)

>  <m_type>  (618) 
aa

>  <m_subtype>  (618) 
modified

>  <m_chem_types>  (618) 
1:backbone_n,2:backbone_c,3:backbone_n_mod

$$$$

     RDKit          2D

 12 11  0  0  0  0  0  0  0  0999 V2000
   -1.8009   -0.1433    0.0000 R   0  0  0  0  0  0  0  0  0  0  0  0
   -1.0937    0.5637    0.0000 N   0  0  0  0  0  0  0  0  0  0  0  0
   -1.3523    1.5297    0.0000 R   0  0  0  0  0  0  0  0  0  0  0  0
   -0.1278    0.3047    0.0000 C   0  0  0  0  0  0  0  0  0  0  0  0
   -0.3864    1.2705    0.0000 C   0  0  0  0  0  0  0  0  0  0  0  0
   -0.3868   -0.6613    0.0000 C   0  0  0  0  0  0  0  0  0  0  0  0
    0.3202   -1.3685    0.0000 C   0  0  0  0  0  0  0  0  0  0  0  0
    0.0612   -2.3343    0.0000 R   0  0  0  0  0  0  0  0  0  0  0  0
    1.2862   -1.1099    0.0000 C   0  0  0  0  0  0  0  0  0  0  0  0
    0.8381    0.5633    0.0000 C   0  0  0  0  0  0  0  0  0  0  0  0
    1.5451   -0.1439    0.0000 R   0  0  0  0  0  0  0  0  0  0  0  0
    1.0971    1.5291    0.0000 O   0  0  0  0  0  0  0  0  0  0  0  0
  1  2  1  0
  2  3  1  0
  2  4  1  0
  4  5  1  6
  4  6  1  0
  6  7  1  0
  7  8  1  0
  7  9  2  0
  4 10  1  0
 10 11  1  0
 10 12  2  0
M  ISO  4   1   1   3   3   8   4  11   2
V    1 *
V    3 *
V    8 *
V   11 *
M  END
>  <symbol>  (619) 
R3

>  <m_Rgroups>  (619) 
[H],[OH],[H],[H],None,None

>  <m_abbr>  (619) 
R3

>  <m_name>  (619) 
(R)-alpha-Me-allylglycine (i,i+3 RCM)

>  <m_type>  (619) 
aa

>  <m_subtype>  (619) 
modified

>  <m_chem_types>  (619) 
1:backbone_n,2:backbone_c,3:backbone_n_mod

$$$$

     RDKit          2D

 14 13  0  0  0  0  0  0  0  0999 V2000
   -0.3919   -1.8660    0.0000 R   0  0  0  0  0  0  0  0  0  0  0  0
   -0.1375   -0.8988    0.0000 N   0  0  0  0  0  0  0  0  0  0  0  0
   -0.8479   -0.1950    0.0000 R   0  0  0  0  0  0  0  0  0  0  0  0
    0.8273   -0.6356    0.0000 C   0  0  0  0  0  0  0  0  0  0  0  0
    0.5729   -1.6028    0.0000 C   0  0  0  0  0  0  0  0  0  0  0  0
    0.5639    0.3290    0.0000 C   0  0  0  0  0  0  0  0  0  0  0  0
   -0.4031    0.5834    0.0000 C   0  0  0  0  0  0  0  0  0  0  0  0
   -0.6663    1.5482    0.0000 C   0  0  0  0  0  0  0  0  0  0  0  0
   -1.6335    1.8024    0.0000 C   0  0  0  0  0  0  0  0  0  0  0  0
   -1.8967    2.7672    0.0000 R   0  0  0  0  0  0  0  0  0  0  0  0
   -2.3373    1.0922    0.0000 C   0  0  0  0  0  0  0  0  0  0  0  0
    1.7943   -0.8900    0.0000 C   0  0  0  0  0  0  0  0  0  0  0  0
    2.0575   -1.8546    0.0000 R   0  0  0  0  0  0  0  0  0  0  0  0
    2.4981   -0.1796    0.0000 O   0  0  0  0  0  0  0  0  0  0  0  0
  1  2  1  0
  2  3  1  0
  2  4  1  0
  4  5  1  1
  4  6  1  0
  6  7  1  0
  7  8  1  0
  8  9  1  0
  9 10  1  0
  9 11  2  0
  4 12  1  0
 12 13  1  0
 12 14  2  0
M  ISO  4   1   1   3   3  10   4  13   2
V    1 *
V    3 *
V   10 *
V   13 *
M  END
>  <symbol>  (620) 
R5

>  <m_Rgroups>  (620) 
[H],[OH],[H],[H],None,None

>  <m_abbr>  (620) 
R5

>  <m_name>  (620) 
(R)-alpha-Me-pentenylglycine (i,i+4 RCM, S5 mirror)

>  <m_type>  (620) 
aa

>  <m_subtype>  (620) 
modified

>  <m_chem_types>  (620) 
1:backbone_n,2:backbone_c,3:backbone_n_mod

$$$$

     RDKit          2D

 17 16  0  0  0  0  0  0  0  0999 V2000
    0.2064   -2.7397    0.0000 R   0  0  0  0  0  0  0  0  0  0  0  0
    0.4608   -1.7725    0.0000 N   0  0  0  0  0  0  0  0  0  0  0  0
   -0.2496   -1.0687    0.0000 R   0  0  0  0  0  0  0  0  0  0  0  0
    1.4256   -1.5093    0.0000 C   0  0  0  0  0  0  0  0  0  0  0  0
    1.1712   -2.4763    0.0000 C   0  0  0  0  0  0  0  0  0  0  0  0
    1.1622   -0.5445    0.0000 C   0  0  0  0  0  0  0  0  0  0  0  0
    0.1952   -0.2903    0.0000 C   0  0  0  0  0  0  0  0  0  0  0  0
   -0.0680    0.6745    0.0000 C   0  0  0  0  0  0  0  0  0  0  0  0
   -1.0352    0.9289    0.0000 C   0  0  0  0  0  0  0  0  0  0  0  0
   -1.2984    1.8935    0.0000 C   0  0  0  0  0  0  0  0  0  0  0  0
   -2.2654    2.1479    0.0000 C   0  0  0  0  0  0  0  0  0  0  0  0
   -2.5288    3.1127    0.0000 C   0  0  0  0  0  0  0  0  0  0  0  0
   -3.4958    3.3669    0.0000 R   0  0  0  0  0  0  0  0  0  0  0  0
   -1.8248    3.8229    0.0000 C   0  0  0  0  0  0  0  0  0  0  0  0
    2.3926   -1.7637    0.0000 C   0  0  0  0  0  0  0  0  0  0  0  0
    2.6558   -2.7283    0.0000 R   0  0  0  0  0  0  0  0  0  0  0  0
    3.0964   -1.0533    0.0000 O   0  0  0  0  0  0  0  0  0  0  0  0
  1  2  1  0
  2  3  1  0
  2  4  1  0
  4  5  1  6
  4  6  1  0
  6  7  1  0
  7  8  1  0
  8  9  1  0
  9 10  1  0
 10 11  1  0
 11 12  1  0
 12 13  1  0
 12 14  2  0
  4 15  1  0
 15 16  1  0
 15 17  2  0
M  ISO  4   1   1   3   3  13   4  16   2
V    1 *
V    3 *
V   13 *
V   16 *
M  END
>  <symbol>  (621) 
S8

>  <m_Rgroups>  (621) 
[H],[OH],[H],[H],None,None

>  <m_abbr>  (621) 
S8

>  <m_name>  (621) 
(S)-alpha-Me-octenylglycine (i,i+7 RCM, R8 mirror)

>  <m_type>  (621) 
aa

>  <m_subtype>  (621) 
modified

>  <m_chem_types>  (621) 
1:backbone_n,2:backbone_c,3:backbone_n_mod

$$$$

     RDKit          2D

 14 14  0  0  0  0  0  0  0  0999 V2000
   -0.9920   -0.6393    0.0000 R   0  0  0  0  0  0  0  0  0  0  0  0
   -0.1278   -1.1425    0.0000 N   0  0  0  0  0  0  0  0  0  0  0  0
   -0.1314   -2.1423    0.0000 C   0  0  0  0  0  0  0  0  0  0  0  0
    0.7400   -0.6455    0.0000 C   0  0  0  0  0  0  0  0  0  0  0  0
    0.7436    0.3545    0.0000 C   0  0  0  0  0  0  0  0  0  0  0  0
   -0.1206    0.8575    0.0000 C   0  0  0  0  0  0  0  0  0  0  0  0
   -0.9884    0.3605    0.0000 C   0  0  0  0  0  0  0  0  0  0  0  0
   -1.8526    0.8637    0.0000 C   0  0  0  0  0  0  0  0  0  0  0  0
   -1.8492    1.8637    0.0000 C   0  0  0  0  0  0  0  0  0  0  0  0
   -0.9812    2.3607    0.0000 C   0  0  0  0  0  0  0  0  0  0  0  0
   -0.1172    1.8575    0.0000 C   0  0  0  0  0  0  0  0  0  0  0  0
    1.6042   -1.1487    0.0000 C   0  0  0  0  0  0  0  0  0  0  0  0
    1.6006   -2.1487    0.0000 R   0  0  0  0  0  0  0  0  0  0  0  0
    2.4720   -0.6517    0.0000 O   0  0  0  0  0  0  0  0  0  0  0  0
  1  2  1  0
  2  3  1  0
  2  4  1  0
  4  5  1  1
  5  6  1  0
  6  7  1  0
  7  8  1  0
  8  9  1  0
  9 10  1  0
 10 11  1  0
  4 12  1  0
 12 13  1  0
 12 14  2  0
 11  6  1  0
M  ISO  2   1   1  13   2
V    1 *
V   13 *
M  END
>  <symbol>  (622) 
meCha

>  <m_Rgroups>  (622) 
[H],[OH],None,None,None,None

>  <m_abbr>  (622) 
meCha

>  <m_name>  (622) 
NMe-L-cyclohexylalanine

>  <m_type>  (622) 
aa

>  <m_subtype>  (622) 
modified

>  <m_chem_types>  (622) 
1:backbone_n,2:backbone_c

$$$$

     RDKit          2D

 11 10  0  0  0  0  0  0  0  0999 V2000
   -2.0463    0.3676    0.0000 R   0  0  0  0  0  0  0  0  0  0  0  0
   -1.1791    0.8660    0.0000 N   0  0  0  0  0  0  0  0  0  0  0  0
   -1.1771    1.8660    0.0000 C   0  0  0  0  0  0  0  0  0  0  0  0
   -0.3141    0.3642    0.0000 C   0  0  0  0  0  0  0  0  0  0  0  0
   -0.3163   -0.6358    0.0000 C   0  0  0  0  0  0  0  0  0  0  0  0
    0.5487   -1.1374    0.0000 C   0  0  0  0  0  0  0  0  0  0  0  0
    0.5467   -2.1374    0.0000 C   0  0  0  0  0  0  0  0  0  0  0  0
    1.4117   -2.6392    0.0000 C   0  0  0  0  0  0  0  0  0  0  0  0
    0.5529    0.8624    0.0000 C   0  0  0  0  0  0  0  0  0  0  0  0
    1.4179    0.3608    0.0000 R   0  0  0  0  0  0  0  0  0  0  0  0
    0.5549    1.8624    0.0000 O   0  0  0  0  0  0  0  0  0  0  0  0
  1  2  1  0
  2  3  1  0
  2  4  1  0
  4  5  1  6
  5  6  1  0
  6  7  1  0
  7  8  1  0
  4  9  1  0
  9 10  1  0
  9 11  2  0
M  ISO  2   1   1  10   2
V    1 *
V   10 *
M  END
>  <symbol>  (623) 
meNle

>  <m_Rgroups>  (623) 
[H],[OH],None,None,None,None

>  <m_abbr>  (623) 
meNle

>  <m_name>  (623) 
NMe-L-norleucine

>  <m_type>  (623) 
aa

>  <m_subtype>  (623) 
modified

>  <m_chem_types>  (623) 
1:backbone_n,2:backbone_c

$$$$

     RDKit          2D

 10  9  0  0  0  0  0  0  0  0999 V2000
   -1.9050    0.1038    0.0000 R   0  0  0  0  0  0  0  0  0  0  0  0
   -1.0380    0.6020    0.0000 N   0  0  0  0  0  0  0  0  0  0  0  0
   -1.0360    1.6020    0.0000 C   0  0  0  0  0  0  0  0  0  0  0  0
   -0.1730    0.1004    0.0000 C   0  0  0  0  0  0  0  0  0  0  0  0
   -0.1750   -0.8996    0.0000 C   0  0  0  0  0  0  0  0  0  0  0  0
    0.6900   -1.4014    0.0000 C   0  0  0  0  0  0  0  0  0  0  0  0
    0.6880   -2.4014    0.0000 C   0  0  0  0  0  0  0  0  0  0  0  0
    0.6940    0.5986    0.0000 C   0  0  0  0  0  0  0  0  0  0  0  0
    1.5590    0.0968    0.0000 R   0  0  0  0  0  0  0  0  0  0  0  0
    0.6960    1.5986    0.0000 O   0  0  0  0  0  0  0  0  0  0  0  0
  1  2  1  0
  2  3  1  0
  2  4  1  0
  4  5  1  6
  5  6  1  0
  6  7  1  0
  4  8  1  0
  8  9  1  0
  8 10  2  0
M  ISO  2   1   1   9   2
V    1 *
V    9 *
M  END
>  <symbol>  (624) 
meNva

>  <m_Rgroups>  (624) 
[H],[OH],None,None,None,None

>  <m_abbr>  (624) 
meNva

>  <m_name>  (624) 
NMe-L-norvaline

>  <m_type>  (624) 
aa

>  <m_subtype>  (624) 
modified

>  <m_chem_types>  (624) 
1:backbone_n,2:backbone_c

$$$$

     RDKit          2D

  9  8  0  0  0  0  0  0  0  0999 V2000
   -1.8286   -0.1630    0.0000 R   0  0  0  0  0  0  0  0  0  0  0  0
   -0.9616    0.3352    0.0000 N   0  0  0  0  0  0  0  0  0  0  0  0
   -0.9596    1.3352    0.0000 C   0  0  0  0  0  0  0  0  0  0  0  0
   -0.0966   -0.1664    0.0000 C   0  0  0  0  0  0  0  0  0  0  0  0
   -0.0986   -1.1664    0.0000 C   0  0  0  0  0  0  0  0  0  0  0  0
    0.7664   -1.6682    0.0000 C   0  0  0  0  0  0  0  0  0  0  0  0
    0.7704    0.3318    0.0000 C   0  0  0  0  0  0  0  0  0  0  0  0
    1.6354   -0.1700    0.0000 R   0  0  0  0  0  0  0  0  0  0  0  0
    0.7724    1.3318    0.0000 O   0  0  0  0  0  0  0  0  0  0  0  0
  1  2  1  0
  2  3  1  0
  2  4  1  0
  4  5  1  6
  5  6  1  0
  4  7  1  0
  7  8  1  0
  7  9  2  0
M  ISO  2   1   1   8   2
V    1 *
V    8 *
M  END
>  <symbol>  (625) 
meAbu

>  <m_Rgroups>  (625) 
[H],[OH],None,None,None,None

>  <m_abbr>  (625) 
meAbu

>  <m_name>  (625) 
NMe-L-Abu (NMe-alpha-aminobutyric)

>  <m_type>  (625) 
aa

>  <m_subtype>  (625) 
modified

>  <m_chem_types>  (625) 
1:backbone_n,2:backbone_c

$$$$

     RDKit          2D

 18 19  0  0  0  0  0  0  0  0999 V2000
   -2.4564   -1.3561    0.0000 R   0  0  0  0  0  0  0  0  0  0  0  0
   -1.5914   -1.8579    0.0000 N   0  0  0  0  0  0  0  0  0  0  0  0
   -1.5934   -2.8579    0.0000 C   0  0  0  0  0  0  0  0  0  0  0  0
   -0.7244   -1.3597    0.0000 C   0  0  0  0  0  0  0  0  0  0  0  0
   -0.7224   -0.3597    0.0000 C   0  0  0  0  0  0  0  0  0  0  0  0
    0.1448    0.1387    0.0000 C   0  0  0  0  0  0  0  0  0  0  0  0
    1.0096   -0.3631    0.0000 C   0  0  0  0  0  0  0  0  0  0  0  0
    1.8768    0.1351    0.0000 C   0  0  0  0  0  0  0  0  0  0  0  0
    1.8786    1.1351    0.0000 C   0  0  0  0  0  0  0  0  0  0  0  0
    1.0138    1.6369    0.0000 C   0  0  0  0  0  0  0  0  0  0  0  0
    1.0156    2.6367    0.0000 C   0  0  0  0  0  0  0  0  0  0  0  0
    0.1508    3.1387    0.0000 C   0  0  0  0  0  0  0  0  0  0  0  0
   -0.7164    2.6403    0.0000 C   0  0  0  0  0  0  0  0  0  0  0  0
   -0.7182    1.6403    0.0000 C   0  0  0  0  0  0  0  0  0  0  0  0
    0.1466    1.1385    0.0000 C   0  0  0  0  0  0  0  0  0  0  0  0
    0.1406   -1.8613    0.0000 C   0  0  0  0  0  0  0  0  0  0  0  0
    0.1386   -2.8613    0.0000 R   0  0  0  0  0  0  0  0  0  0  0  0
    1.0076   -1.3631    0.0000 O   0  0  0  0  0  0  0  0  0  0  0  0
  1  2  1  0
  2  3  1  0
  2  4  1  0
  4  5  1  1
  5  6  1  0
  6  7  2  0
  7  8  1  0
  8  9  2  0
  9 10  1  0
 10 11  2  0
 11 12  1  0
 12 13  2  0
 13 14  1  0
 14 15  2  0
  4 16  1  0
 16 17  1  0
 16 18  2  0
 15  6  1  0
 15 10  1  0
M  ISO  2   1   1  17   2
V    1 *
V   17 *
M  END
>  <symbol>  (626) 
me1Nal

>  <m_Rgroups>  (626) 
[H],[OH],None,None,None,None

>  <m_abbr>  (626) 
me1Nal

>  <m_name>  (626) 
NMe-L-1-naphthylalanine

>  <m_type>  (626) 
aa

>  <m_subtype>  (626) 
modified

>  <m_chem_types>  (626) 
1:backbone_n,2:backbone_c

$$$$

     RDKit          2D

 18 19  0  0  0  0  0  0  0  0999 V2000
   -0.2879   -0.9447    0.0000 R   0  0  0  0  0  0  0  0  0  0  0  0
    0.5785   -1.4441    0.0000 N   0  0  0  0  0  0  0  0  0  0  0  0
    0.5793   -2.4441    0.0000 C   0  0  0  0  0  0  0  0  0  0  0  0
    1.4441   -0.9433    0.0000 C   0  0  0  0  0  0  0  0  0  0  0  0
    1.4433    0.0567    0.0000 C   0  0  0  0  0  0  0  0  0  0  0  0
    0.5771    0.5559    0.0000 C   0  0  0  0  0  0  0  0  0  0  0  0
    0.5763    1.5561    0.0000 C   0  0  0  0  0  0  0  0  0  0  0  0
   -0.2903    2.0553    0.0000 C   0  0  0  0  0  0  0  0  0  0  0  0
   -1.1559    1.5547    0.0000 C   0  0  0  0  0  0  0  0  0  0  0  0
   -2.0223    2.0539    0.0000 C   0  0  0  0  0  0  0  0  0  0  0  0
   -2.8879    1.5533    0.0000 C   0  0  0  0  0  0  0  0  0  0  0  0
   -2.8871    0.5531    0.0000 C   0  0  0  0  0  0  0  0  0  0  0  0
   -2.0207    0.0539    0.0000 C   0  0  0  0  0  0  0  0  0  0  0  0
   -1.1551    0.5545    0.0000 C   0  0  0  0  0  0  0  0  0  0  0  0
   -0.2887    0.0553    0.0000 C   0  0  0  0  0  0  0  0  0  0  0  0
    2.3105   -1.4427    0.0000 C   0  0  0  0  0  0  0  0  0  0  0  0
    2.3113   -2.4427    0.0000 R   0  0  0  0  0  0  0  0  0  0  0  0
    3.1761   -0.9419    0.0000 O   0  0  0  0  0  0  0  0  0  0  0  0
  1  2  1  0
  2  3  1  0
  2  4  1  0
  4  5  1  1
  5  6  1  0
  6  7  1  0
  7  8  2  0
  8  9  1  0
  9 10  2  0
 10 11  1  0
 11 12  2  0
 12 13  1  0
 13 14  2  0
 14 15  1  0
  4 16  1  0
 16 17  1  0
 16 18  2  0
 15  6  2  0
 14  9  1  0
M  ISO  2   1   1  17   2
V    1 *
V   17 *
M  END
>  <symbol>  (627) 
me2Nal

>  <m_Rgroups>  (627) 
[H],[OH],None,None,None,None

>  <m_abbr>  (627) 
me2Nal

>  <m_name>  (627) 
NMe-L-2-naphthylalanine

>  <m_type>  (627) 
aa

>  <m_subtype>  (627) 
modified

>  <m_chem_types>  (627) 
1:backbone_n,2:backbone_c

$$$$

     RDKit          2D

 15 15  0  0  0  0  0  0  0  0999 V2000
   -0.8112   -0.7971    0.0000 R   0  0  0  0  0  0  0  0  0  0  0  0
    0.0530   -1.3003    0.0000 N   0  0  0  0  0  0  0  0  0  0  0  0
    0.0494   -2.3001    0.0000 C   0  0  0  0  0  0  0  0  0  0  0  0
    0.9208   -0.8033    0.0000 C   0  0  0  0  0  0  0  0  0  0  0  0
    0.9244    0.1967    0.0000 C   0  0  0  0  0  0  0  0  0  0  0  0
    0.0604    0.6997    0.0000 C   0  0  0  0  0  0  0  0  0  0  0  0
   -0.8076    0.2027    0.0000 C   0  0  0  0  0  0  0  0  0  0  0  0
   -1.6716    0.7059    0.0000 C   0  0  0  0  0  0  0  0  0  0  0  0
   -1.6682    1.7059    0.0000 C   0  0  0  0  0  0  0  0  0  0  0  0
   -2.5324    2.2091    0.0000 F   0  0  0  0  0  0  0  0  0  0  0  0
   -0.8004    2.2029    0.0000 C   0  0  0  0  0  0  0  0  0  0  0  0
    0.0638    1.6997    0.0000 C   0  0  0  0  0  0  0  0  0  0  0  0
    1.7850   -1.3065    0.0000 C   0  0  0  0  0  0  0  0  0  0  0  0
    1.7814   -2.3063    0.0000 R   0  0  0  0  0  0  0  0  0  0  0  0
    2.6528   -0.8095    0.0000 O   0  0  0  0  0  0  0  0  0  0  0  0
  1  2  1  0
  2  3  1  0
  2  4  1  0
  4  5  1  1
  5  6  1  0
  6  7  1  0
  7  8  2  0
  8  9  1  0
  9 10  1  0
  9 11  2  0
 11 12  1  0
  4 13  1  0
 13 14  1  0
 13 15  2  0
 12  6  2  0
M  ISO  2   1   1  14   2
V    1 *
V   14 *
M  END
>  <symbol>  (628) 
mePhe_4F

>  <m_Rgroups>  (628) 
[H],[OH],None,None,None,None

>  <m_abbr>  (628) 
mePhe_4F

>  <m_name>  (628) 
NMe-L-4-fluorophenylalanine

>  <m_type>  (628) 
aa

>  <m_subtype>  (628) 
modified

>  <m_chem_types>  (628) 
1:backbone_n,2:backbone_c

$$$$

     RDKit          2D

 15 15  0  0  0  0  0  0  0  0999 V2000
   -0.8112   -0.7971    0.0000 R   0  0  0  0  0  0  0  0  0  0  0  0
    0.0530   -1.3003    0.0000 N   0  0  0  0  0  0  0  0  0  0  0  0
    0.0494   -2.3001    0.0000 C   0  0  0  0  0  0  0  0  0  0  0  0
    0.9208   -0.8033    0.0000 C   0  0  0  0  0  0  0  0  0  0  0  0
    0.9244    0.1967    0.0000 C   0  0  0  0  0  0  0  0  0  0  0  0
    0.0604    0.6997    0.0000 C   0  0  0  0  0  0  0  0  0  0  0  0
   -0.8076    0.2027    0.0000 C   0  0  0  0  0  0  0  0  0  0  0  0
   -1.6716    0.7059    0.0000 C   0  0  0  0  0  0  0  0  0  0  0  0
   -1.6682    1.7059    0.0000 C   0  0  0  0  0  0  0  0  0  0  0  0
   -2.5324    2.2091    0.0000 Cl  0  0  0  0  0  0  0  0  0  0  0  0
   -0.8004    2.2029    0.0000 C   0  0  0  0  0  0  0  0  0  0  0  0
    0.0638    1.6997    0.0000 C   0  0  0  0  0  0  0  0  0  0  0  0
    1.7850   -1.3065    0.0000 C   0  0  0  0  0  0  0  0  0  0  0  0
    1.7814   -2.3063    0.0000 R   0  0  0  0  0  0  0  0  0  0  0  0
    2.6528   -0.8095    0.0000 O   0  0  0  0  0  0  0  0  0  0  0  0
  1  2  1  0
  2  3  1  0
  2  4  1  0
  4  5  1  1
  5  6  1  0
  6  7  1  0
  7  8  2  0
  8  9  1  0
  9 10  1  0
  9 11  2  0
 11 12  1  0
  4 13  1  0
 13 14  1  0
 13 15  2  0
 12  6  2  0
M  ISO  2   1   1  14   2
V    1 *
V   14 *
M  END
>  <symbol>  (629) 
mePhe_4Cl

>  <m_Rgroups>  (629) 
[H],[OH],None,None,None,None

>  <m_abbr>  (629) 
mePhe_4Cl

>  <m_name>  (629) 
NMe-L-4-chlorophenylalanine

>  <m_type>  (629) 
aa

>  <m_subtype>  (629) 
modified

>  <m_chem_types>  (629) 
1:backbone_n,2:backbone_c

$$$$

     RDKit          2D

 16 16  0  0  0  0  0  0  0  0999 V2000
   -0.6531   -0.9977    0.0000 R   0  0  0  0  0  0  0  0  0  0  0  0
    0.2111   -1.5007    0.0000 N   0  0  0  0  0  0  0  0  0  0  0  0
    0.2075   -2.5007    0.0000 C   0  0  0  0  0  0  0  0  0  0  0  0
    1.0789   -1.0039    0.0000 C   0  0  0  0  0  0  0  0  0  0  0  0
    1.0825   -0.0039    0.0000 C   0  0  0  0  0  0  0  0  0  0  0  0
    0.2183    0.4991    0.0000 C   0  0  0  0  0  0  0  0  0  0  0  0
   -0.6495    0.0023    0.0000 C   0  0  0  0  0  0  0  0  0  0  0  0
   -1.5137    0.5055    0.0000 C   0  0  0  0  0  0  0  0  0  0  0  0
   -1.5101    1.5053    0.0000 C   0  0  0  0  0  0  0  0  0  0  0  0
   -2.3743    2.0085    0.0000 O   0  0  0  0  0  0  0  0  0  0  0  0
   -2.3707    3.0085    0.0000 C   0  0  0  0  0  0  0  0  0  0  0  0
   -0.6423    2.0023    0.0000 C   0  0  0  0  0  0  0  0  0  0  0  0
    0.2219    1.4991    0.0000 C   0  0  0  0  0  0  0  0  0  0  0  0
    1.9431   -1.5069    0.0000 C   0  0  0  0  0  0  0  0  0  0  0  0
    1.9395   -2.5069    0.0000 R   0  0  0  0  0  0  0  0  0  0  0  0
    2.8109   -1.0101    0.0000 O   0  0  0  0  0  0  0  0  0  0  0  0
  1  2  1  0
  2  3  1  0
  2  4  1  0
  4  5  1  1
  5  6  1  0
  6  7  1  0
  7  8  2  0
  8  9  1  0
  9 10  1  0
 10 11  1  0
  9 12  2  0
 12 13  1  0
  4 14  1  0
 14 15  1  0
 14 16  2  0
 13  6  2  0
M  ISO  2   1   1  15   2
V    1 *
V   15 *
M  END
>  <symbol>  (630) 
mePhe_4OMe

>  <m_Rgroups>  (630) 
[H],[OH],None,None,None,None

>  <m_abbr>  (630) 
mePhe_4OMe

>  <m_name>  (630) 
NMe-L-4-methoxyphenylalanine

>  <m_type>  (630) 
aa

>  <m_subtype>  (630) 
modified

>  <m_chem_types>  (630) 
1:backbone_n,2:backbone_c

$$$$

     RDKit          2D

 15 15  0  0  0  0  0  0  0  0999 V2000
   -0.8112   -0.7971    0.0000 R   0  0  0  0  0  0  0  0  0  0  0  0
    0.0530   -1.3003    0.0000 N   0  0  0  0  0  0  0  0  0  0  0  0
    0.0494   -2.3001    0.0000 C   0  0  0  0  0  0  0  0  0  0  0  0
    0.9208   -0.8033    0.0000 C   0  0  0  0  0  0  0  0  0  0  0  0
    0.9244    0.1967    0.0000 C   0  0  0  0  0  0  0  0  0  0  0  0
    0.0604    0.6997    0.0000 C   0  0  0  0  0  0  0  0  0  0  0  0
   -0.8076    0.2027    0.0000 C   0  0  0  0  0  0  0  0  0  0  0  0
   -1.6716    0.7059    0.0000 C   0  0  0  0  0  0  0  0  0  0  0  0
   -1.6682    1.7059    0.0000 C   0  0  0  0  0  0  0  0  0  0  0  0
   -2.5324    2.2091    0.0000 Br  0  0  0  0  0  0  0  0  0  0  0  0
   -0.8004    2.2029    0.0000 C   0  0  0  0  0  0  0  0  0  0  0  0
    0.0638    1.6997    0.0000 C   0  0  0  0  0  0  0  0  0  0  0  0
    1.7850   -1.3065    0.0000 C   0  0  0  0  0  0  0  0  0  0  0  0
    1.7814   -2.3063    0.0000 R   0  0  0  0  0  0  0  0  0  0  0  0
    2.6528   -0.8095    0.0000 O   0  0  0  0  0  0  0  0  0  0  0  0
  1  2  1  0
  2  3  1  0
  2  4  1  0
  4  5  1  1
  5  6  1  0
  6  7  1  0
  7  8  2  0
  8  9  1  0
  9 10  1  0
  9 11  2  0
 11 12  1  0
  4 13  1  0
 13 14  1  0
 13 15  2  0
 12  6  2  0
M  ISO  2   1   1  14   2
V    1 *
V   14 *
M  END
>  <symbol>  (631) 
mePhe_4Br

>  <m_Rgroups>  (631) 
[H],[OH],None,None,None,None

>  <m_abbr>  (631) 
mePhe_4Br

>  <m_name>  (631) 
NMe-L-4-bromophenylalanine

>  <m_type>  (631) 
aa

>  <m_subtype>  (631) 
modified

>  <m_chem_types>  (631) 
1:backbone_n,2:backbone_c

$$$$

     RDKit          2D

 15 15  0  0  0  0  0  0  0  0999 V2000
   -0.9231   -0.8673    0.0000 R   0  0  0  0  0  0  0  0  0  0  0  0
   -0.0567   -1.3667    0.0000 N   0  0  0  0  0  0  0  0  0  0  0  0
   -0.0559   -2.3667    0.0000 C   0  0  0  0  0  0  0  0  0  0  0  0
    0.8089   -0.8659    0.0000 C   0  0  0  0  0  0  0  0  0  0  0  0
    0.8081    0.1341    0.0000 C   0  0  0  0  0  0  0  0  0  0  0  0
   -0.0581    0.6333    0.0000 C   0  0  0  0  0  0  0  0  0  0  0  0
   -0.9239    0.1327    0.0000 C   0  0  0  0  0  0  0  0  0  0  0  0
   -1.7903    0.6319    0.0000 C   0  0  0  0  0  0  0  0  0  0  0  0
   -1.7911    1.6319    0.0000 C   0  0  0  0  0  0  0  0  0  0  0  0
   -0.9253    2.1325    0.0000 C   0  0  0  0  0  0  0  0  0  0  0  0
   -0.9261    3.1327    0.0000 F   0  0  0  0  0  0  0  0  0  0  0  0
   -0.0589    1.6333    0.0000 C   0  0  0  0  0  0  0  0  0  0  0  0
    1.6753   -1.3653    0.0000 C   0  0  0  0  0  0  0  0  0  0  0  0
    1.6761   -2.3653    0.0000 R   0  0  0  0  0  0  0  0  0  0  0  0
    2.5409   -0.8647    0.0000 O   0  0  0  0  0  0  0  0  0  0  0  0
  1  2  1  0
  2  3  1  0
  2  4  1  0
  4  5  1  1
  5  6  1  0
  6  7  2  0
  7  8  1  0
  8  9  2  0
  9 10  1  0
 10 11  1  0
 10 12  2  0
  4 13  1  0
 13 14  1  0
 13 15  2  0
 12  6  1  0
M  ISO  2   1   1  14   2
V    1 *
V   14 *
M  END
>  <symbol>  (632) 
mePhe_3F

>  <m_Rgroups>  (632) 
[H],[OH],None,None,None,None

>  <m_abbr>  (632) 
mePhe_3F

>  <m_name>  (632) 
NMe-L-3-fluorophenylalanine

>  <m_type>  (632) 
aa

>  <m_subtype>  (632) 
modified

>  <m_chem_types>  (632) 
1:backbone_n,2:backbone_c

$$$$

     RDKit          2D

 16 16  0  0  0  0  0  0  0  0999 V2000
   -0.8110   -1.0945    0.0000 R   0  0  0  0  0  0  0  0  0  0  0  0
    0.0554   -1.5937    0.0000 N   0  0  0  0  0  0  0  0  0  0  0  0
    0.0562   -2.5937    0.0000 C   0  0  0  0  0  0  0  0  0  0  0  0
    0.9210   -1.0931    0.0000 C   0  0  0  0  0  0  0  0  0  0  0  0
    0.9202   -0.0931    0.0000 C   0  0  0  0  0  0  0  0  0  0  0  0
    0.0540    0.4063    0.0000 C   0  0  0  0  0  0  0  0  0  0  0  0
   -0.8118   -0.0943    0.0000 C   0  0  0  0  0  0  0  0  0  0  0  0
   -1.6782    0.4049    0.0000 C   0  0  0  0  0  0  0  0  0  0  0  0
   -1.6790    1.4049    0.0000 C   0  0  0  0  0  0  0  0  0  0  0  0
   -0.8134    1.9055    0.0000 C   0  0  0  0  0  0  0  0  0  0  0  0
   -0.8142    2.9055    0.0000 O   0  0  0  0  0  0  0  0  0  0  0  0
   -1.6806    3.4049    0.0000 C   0  0  0  0  0  0  0  0  0  0  0  0
    0.0532    1.4063    0.0000 C   0  0  0  0  0  0  0  0  0  0  0  0
    1.7874   -1.5923    0.0000 C   0  0  0  0  0  0  0  0  0  0  0  0
    1.7882   -2.5923    0.0000 R   0  0  0  0  0  0  0  0  0  0  0  0
    2.6530   -1.0917    0.0000 O   0  0  0  0  0  0  0  0  0  0  0  0
  1  2  1  0
  2  3  1  0
  2  4  1  0
  4  5  1  1
  5  6  1  0
  6  7  1  0
  7  8  2  0
  8  9  1  0
  9 10  2  0
 10 11  1  0
 11 12  1  0
 10 13  1  0
  4 14  1  0
 14 15  1  0
 14 16  2  0
 13  6  2  0
M  ISO  2   1   1  15   2
V    1 *
V   15 *
M  END
>  <symbol>  (633) 
mePhe_3OMe

>  <m_Rgroups>  (633) 
[H],[OH],None,None,None,None

>  <m_abbr>  (633) 
mePhe_3OMe

>  <m_name>  (633) 
NMe-L-3-methoxyphenylalanine

>  <m_type>  (633) 
aa

>  <m_subtype>  (633) 
modified

>  <m_chem_types>  (633) 
1:backbone_n,2:backbone_c

$$$$

     RDKit          2D

 20 21  0  0  0  0  0  0  0  0999 V2000
    0.0812   -1.5003    0.0000 R   0  0  0  0  0  0  0  0  0  0  0  0
    0.9454   -2.0033    0.0000 N   0  0  0  0  0  0  0  0  0  0  0  0
    0.9418   -3.0033    0.0000 C   0  0  0  0  0  0  0  0  0  0  0  0
    1.8132   -1.5065    0.0000 C   0  0  0  0  0  0  0  0  0  0  0  0
    1.8168   -0.5065    0.0000 C   0  0  0  0  0  0  0  0  0  0  0  0
    0.9526   -0.0035    0.0000 C   0  0  0  0  0  0  0  0  0  0  0  0
    0.0848   -0.5003    0.0000 C   0  0  0  0  0  0  0  0  0  0  0  0
   -0.7794    0.0029    0.0000 C   0  0  0  0  0  0  0  0  0  0  0  0
   -0.7758    1.0027    0.0000 C   0  0  0  0  0  0  0  0  0  0  0  0
   -1.6400    1.5059    0.0000 C   0  0  0  0  0  0  0  0  0  0  0  0
   -2.5078    1.0089    0.0000 C   0  0  0  0  0  0  0  0  0  0  0  0
   -3.3720    1.5121    0.0000 C   0  0  0  0  0  0  0  0  0  0  0  0
   -3.3684    2.5121    0.0000 C   0  0  0  0  0  0  0  0  0  0  0  0
   -2.5006    3.0089    0.0000 C   0  0  0  0  0  0  0  0  0  0  0  0
   -1.6364    2.5057    0.0000 C   0  0  0  0  0  0  0  0  0  0  0  0
    0.0920    1.4997    0.0000 C   0  0  0  0  0  0  0  0  0  0  0  0
    0.9562    0.9965    0.0000 C   0  0  0  0  0  0  0  0  0  0  0  0
    2.6774   -2.0095    0.0000 C   0  0  0  0  0  0  0  0  0  0  0  0
    2.6738   -3.0095    0.0000 R   0  0  0  0  0  0  0  0  0  0  0  0
    3.5452   -1.5127    0.0000 O   0  0  0  0  0  0  0  0  0  0  0  0
  1  2  1  0
  2  3  1  0
  2  4  1  0
  4  5  1  1
  5  6  1  0
  6  7  1  0
  7  8  2  0
  8  9  1  0
  9 10  1  0
 10 11  2  0
 11 12  1  0
 12 13  2  0
 13 14  1  0
 14 15  2  0
  9 16  2  0
 16 17  1  0
  4 18  1  0
 18 19  1  0
 18 20  2  0
 17  6  2  0
 15 10  1  0
M  ISO  2   1   1  19   2
V    1 *
V   19 *
M  END
>  <symbol>  (634) 
meBip

>  <m_Rgroups>  (634) 
[H],[OH],None,None,None,None

>  <m_abbr>  (634) 
meBip

>  <m_name>  (634) 
NMe-L-biphenylalanine

>  <m_type>  (634) 
aa

>  <m_subtype>  (634) 
modified

>  <m_chem_types>  (634) 
1:backbone_n,2:backbone_c

$$$$

     RDKit          2D

 21 22  0  0  0  0  0  0  0  0999 V2000
    0.6765   -2.5784    0.0000 R   0  0  0  0  0  0  0  0  0  0  0  0
    0.6289   -1.5524    0.0000 N   0  0  0  0  0  0  0  0  0  0  0  0
   -0.2165   -1.0610    0.0000 C   0  0  0  0  0  0  0  0  0  0  0  0
    1.3305   -1.0742    0.0000 C   0  0  0  0  0  0  0  0  0  0  0  0
    1.1347   -0.0434    0.0000 C   0  0  0  0  0  0  0  0  0  0  0  0
    0.0439    0.3930    0.0000 C   0  0  0  0  0  0  0  0  0  0  0  0
   -0.8533   -0.1884    0.0000 C   0  0  0  0  0  0  0  0  0  0  0  0
   -1.6931    0.3576    0.0000 C   0  0  0  0  0  0  0  0  0  0  0  0
   -2.5805   -0.1004    0.0000 C   0  0  0  0  0  0  0  0  0  0  0  0
   -2.6303   -1.1016    0.0000 C   0  0  0  0  0  0  0  0  0  0  0  0
   -1.7891   -1.6452    0.0000 C   0  0  0  0  0  0  0  0  0  0  0  0
   -0.9001   -1.1914    0.0000 C   0  0  0  0  0  0  0  0  0  0  0  0
   -0.0957    1.4888    0.0000 C   0  0  0  0  0  0  0  0  0  0  0  0
    0.7403    2.0366    0.0000 C   0  0  0  0  0  0  0  0  0  0  0  0
    0.6885    3.0340    0.0000 C   0  0  0  0  0  0  0  0  0  0  0  0
   -0.2053    3.4874    0.0000 C   0  0  0  0  0  0  0  0  0  0  0  0
   -1.0419    2.9400    0.0000 C   0  0  0  0  0  0  0  0  0  0  0  0
   -0.9903    1.9422    0.0000 C   0  0  0  0  0  0  0  0  0  0  0  0
    2.2837   -1.5480    0.0000 C   0  0  0  0  0  0  0  0  0  0  0  0
    2.3385   -2.5726    0.0000 R   0  0  0  0  0  0  0  0  0  0  0  0
    3.1303   -1.0230    0.0000 O   0  0  0  0  0  0  0  0  0  0  0  0
  1  2  1  0
  2  3  1  0
  2  4  1  0
  4  5  1  1
  5  6  1  0
  6  7  1  0
  7  8  2  0
  8  9  1  0
  9 10  2  0
 10 11  1  0
 11 12  2  0
  6 13  1  0
 13 14  2  0
 14 15  1  0
 15 16  2  0
 16 17  1  0
 17 18  2  0
  4 19  1  0
 19 20  1  0
 19 21  2  0
 12  7  1  0
 18 13  1  0
M  ISO  2   1   1  20   2
V    1 *
V   20 *
M  END
>  <symbol>  (635) 
meDip

>  <m_Rgroups>  (635) 
[H],[OH],None,None,None,None

>  <m_abbr>  (635) 
meDip

>  <m_name>  (635) 
NMe-L-3,3-diphenylalanine

>  <m_type>  (635) 
aa

>  <m_subtype>  (635) 
modified

>  <m_chem_types>  (635) 
1:backbone_n,2:backbone_c

$$$$

     RDKit          2D

 13 13  0  0  0  0  0  0  0  0999 V2000
   -1.7333   -0.6119    0.0000 R   0  0  0  0  0  0  0  0  0  0  0  0
   -0.8683   -1.1137    0.0000 N   0  0  0  0  0  0  0  0  0  0  0  0
   -0.8703   -2.1137    0.0000 C   0  0  0  0  0  0  0  0  0  0  0  0
   -0.0013   -0.6153    0.0000 C   0  0  0  0  0  0  0  0  0  0  0  0
    0.0007    0.3845    0.0000 C   0  0  0  0  0  0  0  0  0  0  0  0
    0.8679    0.8829    0.0000 C   0  0  0  0  0  0  0  0  0  0  0  0
    0.8697    1.8827    0.0000 C   0  0  0  0  0  0  0  0  0  0  0  0
    0.0049    2.3847    0.0000 C   0  0  0  0  0  0  0  0  0  0  0  0
   -0.8623    1.8863    0.0000 C   0  0  0  0  0  0  0  0  0  0  0  0
   -0.8641    0.8863    0.0000 C   0  0  0  0  0  0  0  0  0  0  0  0
    0.8637   -1.1171    0.0000 C   0  0  0  0  0  0  0  0  0  0  0  0
    0.8617   -2.1171    0.0000 R   0  0  0  0  0  0  0  0  0  0  0  0
    1.7309   -0.6189    0.0000 O   0  0  0  0  0  0  0  0  0  0  0  0
  1  2  1  0
  2  3  1  0
  4  2  1  1
  4  5  1  0
  5  6  1  0
  6  7  1  0
  7  8  1  0
  8  9  1  0
  9 10  1  0
  4 11  1  0
 11 12  1  0
 11 13  2  0
 10  5  1  0
M  ISO  2   1   1  12   2
V    1 *
V   12 *
M  END
>  <symbol>  (636) 
meChg

>  <m_Rgroups>  (636) 
[H],[OH],None,None,None,None

>  <m_abbr>  (636) 
meChg

>  <m_name>  (636) 
NMe-L-cyclohexylglycine

>  <m_type>  (636) 
aa

>  <m_subtype>  (636) 
modified

>  <m_chem_types>  (636) 
1:backbone_n,2:backbone_c

$$$$

     RDKit          2D

 14 14  0  0  0  0  0  0  0  0999 V2000
   -0.9920   -0.6393    0.0000 R   0  0  0  0  0  0  0  0  0  0  0  0
   -0.1278   -1.1425    0.0000 N   0  0  0  0  0  0  0  0  0  0  0  0
   -0.1314   -2.1423    0.0000 C   0  0  0  0  0  0  0  0  0  0  0  0
    0.7400   -0.6455    0.0000 C   0  0  0  0  0  0  0  0  0  0  0  0
    0.7436    0.3545    0.0000 C   0  0  0  0  0  0  0  0  0  0  0  0
   -0.1206    0.8575    0.0000 C   0  0  0  0  0  0  0  0  0  0  0  0
   -0.9884    0.3605    0.0000 C   0  0  0  0  0  0  0  0  0  0  0  0
   -1.8526    0.8637    0.0000 C   0  0  0  0  0  0  0  0  0  0  0  0
   -1.8492    1.8637    0.0000 N   0  0  0  0  0  0  0  0  0  0  0  0
   -0.9812    2.3607    0.0000 C   0  0  0  0  0  0  0  0  0  0  0  0
   -0.1172    1.8575    0.0000 C   0  0  0  0  0  0  0  0  0  0  0  0
    1.6042   -1.1487    0.0000 C   0  0  0  0  0  0  0  0  0  0  0  0
    1.6006   -2.1487    0.0000 R   0  0  0  0  0  0  0  0  0  0  0  0
    2.4720   -0.6517    0.0000 O   0  0  0  0  0  0  0  0  0  0  0  0
  1  2  1  0
  2  3  1  0
  2  4  1  0
  4  5  1  1
  5  6  1  0
  6  7  1  0
  7  8  2  0
  8  9  1  0
  9 10  2  0
 10 11  1  0
  4 12  1  0
 12 13  1  0
 12 14  2  0
 11  6  2  0
M  ISO  2   1   1  13   2
V    1 *
V   13 *
M  END
>  <symbol>  (637) 
me4Pal

>  <m_Rgroups>  (637) 
[H],[OH],None,None,None,None

>  <m_abbr>  (637) 
me4Pal

>  <m_name>  (637) 
NMe-L-4-pyridylalanine

>  <m_type>  (637) 
aa

>  <m_subtype>  (637) 
modified

>  <m_chem_types>  (637) 
1:backbone_n,2:backbone_c

$$$$

     RDKit          2D

 14 14  0  0  0  0  0  0  0  0999 V2000
   -0.9920   -0.6393    0.0000 R   0  0  0  0  0  0  0  0  0  0  0  0
   -0.1278   -1.1425    0.0000 N   0  0  0  0  0  0  0  0  0  0  0  0
   -0.1314   -2.1423    0.0000 C   0  0  0  0  0  0  0  0  0  0  0  0
    0.7400   -0.6455    0.0000 C   0  0  0  0  0  0  0  0  0  0  0  0
    0.7436    0.3545    0.0000 C   0  0  0  0  0  0  0  0  0  0  0  0
   -0.1206    0.8575    0.0000 C   0  0  0  0  0  0  0  0  0  0  0  0
   -0.9884    0.3605    0.0000 C   0  0  0  0  0  0  0  0  0  0  0  0
   -1.8526    0.8637    0.0000 C   0  0  0  0  0  0  0  0  0  0  0  0
   -1.8492    1.8637    0.0000 C   0  0  0  0  0  0  0  0  0  0  0  0
   -0.9812    2.3607    0.0000 N   0  0  0  0  0  0  0  0  0  0  0  0
   -0.1172    1.8575    0.0000 C   0  0  0  0  0  0  0  0  0  0  0  0
    1.6042   -1.1487    0.0000 C   0  0  0  0  0  0  0  0  0  0  0  0
    1.6006   -2.1487    0.0000 R   0  0  0  0  0  0  0  0  0  0  0  0
    2.4720   -0.6517    0.0000 O   0  0  0  0  0  0  0  0  0  0  0  0
  1  2  1  0
  2  3  1  0
  2  4  1  0
  4  5  1  1
  5  6  1  0
  6  7  2  0
  7  8  1  0
  8  9  2  0
  9 10  1  0
 10 11  2  0
  4 12  1  0
 12 13  1  0
 12 14  2  0
 11  6  1  0
M  ISO  2   1   1  13   2
V    1 *
V   13 *
M  END
>  <symbol>  (638) 
me3Pal

>  <m_Rgroups>  (638) 
[H],[OH],None,None,None,None

>  <m_abbr>  (638) 
me3Pal

>  <m_name>  (638) 
NMe-L-3-pyridylalanine

>  <m_type>  (638) 
aa

>  <m_subtype>  (638) 
modified

>  <m_chem_types>  (638) 
1:backbone_n,2:backbone_c

$$$$

     RDKit          2D

 18 18  0  0  0  0  0  0  0  0999 V2000
   -0.3040   -1.1734    0.0000 R   0  0  0  0  0  0  0  0  0  0  0  0
    0.5610   -1.6752    0.0000 N   0  0  0  0  0  0  0  0  0  0  0  0
    0.5590   -2.6752    0.0000 C   0  0  0  0  0  0  0  0  0  0  0  0
    1.4282   -1.1770    0.0000 C   0  0  0  0  0  0  0  0  0  0  0  0
    1.4302   -0.1770    0.0000 C   0  0  0  0  0  0  0  0  0  0  0  0
    0.5652    0.3248    0.0000 C   0  0  0  0  0  0  0  0  0  0  0  0
    0.5670    1.3246    0.0000 C   0  0  0  0  0  0  0  0  0  0  0  0
   -0.2978    1.8266    0.0000 C   0  0  0  0  0  0  0  0  0  0  0  0
   -1.1650    1.3282    0.0000 C   0  0  0  0  0  0  0  0  0  0  0  0
   -2.0298    1.8298    0.0000 C   0  0  0  0  0  0  0  0  0  0  0  0
   -2.5316    0.9648    0.0000 F   0  0  0  0  0  0  0  0  0  0  0  0
   -3.0298    1.8320    0.0000 F   0  0  0  0  0  0  0  0  0  0  0  0
   -2.0278    2.8298    0.0000 F   0  0  0  0  0  0  0  0  0  0  0  0
   -1.1668    0.3282    0.0000 C   0  0  0  0  0  0  0  0  0  0  0  0
   -0.3020   -0.1736    0.0000 C   0  0  0  0  0  0  0  0  0  0  0  0
    2.2932   -1.6786    0.0000 C   0  0  0  0  0  0  0  0  0  0  0  0
    2.2912   -2.6786    0.0000 R   0  0  0  0  0  0  0  0  0  0  0  0
    3.1602   -1.1804    0.0000 O   0  0  0  0  0  0  0  0  0  0  0  0
  1  2  1  0
  2  3  1  0
  2  4  1  0
  4  5  1  1
  5  6  1  0
  6  7  1  0
  7  8  2  0
  8  9  1  0
  9 10  1  0
 10 11  1  0
 10 12  1  0
 10 13  1  0
  9 14  2  0
 14 15  1  0
  4 16  1  0
 16 17  1  0
 16 18  2  0
 15  6  2  0
M  ISO  2   1   1  17   2
V    1 *
V   17 *
M  END
>  <symbol>  (639) 
mePhe_4CF3

>  <m_Rgroups>  (639) 
[H],[OH],None,None,None,None

>  <m_abbr>  (639) 
mePhe_4CF3

>  <m_name>  (639) 
NMe-L-4-(trifluoromethyl)phenylalanine

>  <m_type>  (639) 
aa

>  <m_subtype>  (639) 
modified

>  <m_chem_types>  (639) 
1:backbone_n,2:backbone_c

$$$$

     RDKit          2D

 18 18  0  0  0  0  0  0  0  0999 V2000
   -0.3040   -1.1734    0.0000 R   0  0  0  0  0  0  0  0  0  0  0  0
    0.5610   -1.6752    0.0000 N   0  0  0  0  0  0  0  0  0  0  0  0
    0.5590   -2.6752    0.0000 C   0  0  0  0  0  0  0  0  0  0  0  0
    1.4282   -1.1770    0.0000 C   0  0  0  0  0  0  0  0  0  0  0  0
    1.4302   -0.1770    0.0000 C   0  0  0  0  0  0  0  0  0  0  0  0
    0.5652    0.3248    0.0000 C   0  0  0  0  0  0  0  0  0  0  0  0
    0.5670    1.3246    0.0000 C   0  0  0  0  0  0  0  0  0  0  0  0
   -0.2978    1.8266    0.0000 C   0  0  0  0  0  0  0  0  0  0  0  0
   -1.1650    1.3282    0.0000 C   0  0  0  0  0  0  0  0  0  0  0  0
   -2.0298    1.8298    0.0000 C   0  0  0  0  0  0  0  0  0  0  0  0
   -2.5316    0.9648    0.0000 C   0  0  0  0  0  0  0  0  0  0  0  0
   -3.0298    1.8320    0.0000 C   0  0  0  0  0  0  0  0  0  0  0  0
   -2.0278    2.8298    0.0000 C   0  0  0  0  0  0  0  0  0  0  0  0
   -1.1668    0.3282    0.0000 C   0  0  0  0  0  0  0  0  0  0  0  0
   -0.3020   -0.1736    0.0000 C   0  0  0  0  0  0  0  0  0  0  0  0
    2.2932   -1.6786    0.0000 C   0  0  0  0  0  0  0  0  0  0  0  0
    2.2912   -2.6786    0.0000 R   0  0  0  0  0  0  0  0  0  0  0  0
    3.1602   -1.1804    0.0000 O   0  0  0  0  0  0  0  0  0  0  0  0
  1  2  1  0
  2  3  1  0
  2  4  1  0
  4  5  1  1
  5  6  1  0
  6  7  1  0
  7  8  2  0
  8  9  1  0
  9 10  1  0
 10 11  1  0
 10 12  1  0
 10 13  1  0
  9 14  2  0
 14 15  1  0
  4 16  1  0
 16 17  1  0
 16 18  2  0
 15  6  2  0
M  ISO  2   1   1  17   2
V    1 *
V   17 *
M  END
>  <symbol>  (640) 
mePhe_4tBu

>  <m_Rgroups>  (640) 
[H],[OH],None,None,None,None

>  <m_abbr>  (640) 
mePhe_4tBu

>  <m_name>  (640) 
NMe-L-4-tert-butylphenylalanine

>  <m_type>  (640) 
aa

>  <m_subtype>  (640) 
modified

>  <m_chem_types>  (640) 
1:backbone_n,2:backbone_c

$$$$

     RDKit          2D

  8  7  0  0  0  0  0  0  0  0999 V2000
   -0.8652    1.1256    0.0000 R   0  0  0  0  0  0  0  0  0  0  0  0
   -0.8660    0.1256    0.0000 N   0  0  0  0  0  0  0  0  0  0  0  0
   -1.7322   -0.3736    0.0000 C   0  0  0  0  0  0  0  0  0  0  0  0
   -0.0002   -0.3750    0.0000 C   0  0  0  0  0  0  0  0  0  0  0  0
   -0.0010   -1.3750    0.0000 C   0  0  0  0  0  0  0  0  0  0  0  0
    0.8660    0.1244    0.0000 C   0  0  0  0  0  0  0  0  0  0  0  0
    1.7318   -0.3764    0.0000 R   0  0  0  0  0  0  0  0  0  0  0  0
    0.8668    1.1244    0.0000 O   0  0  0  0  0  0  0  0  0  0  0  0
  1  2  1  0
  2  3  1  0
  2  4  1  0
  4  5  1  1
  4  6  1  0
  6  7  1  0
  6  8  2  0
M  ISO  2   1   1   7   2
V    1 *
V    7 *
M  END
>  <symbol>  (641) 
D_meA

>  <m_Rgroups>  (641) 
[H],[OH],None,None,None,None

>  <m_abbr>  (641) 
D_meA

>  <m_name>  (641) 
NMe-D-alanine

>  <m_type>  (641) 
aa

>  <m_subtype>  (641) 
modified

>  <m_chem_types>  (641) 
1:backbone_n,2:backbone_c

$$$$

     RDKit          2D

 14 14  0  0  0  0  0  0  0  0999 V2000
   -0.9920   -0.6393    0.0000 R   0  0  0  0  0  0  0  0  0  0  0  0
   -0.1278   -1.1425    0.0000 N   0  0  0  0  0  0  0  0  0  0  0  0
   -0.1314   -2.1423    0.0000 C   0  0  0  0  0  0  0  0  0  0  0  0
    0.7400   -0.6455    0.0000 C   0  0  0  0  0  0  0  0  0  0  0  0
    0.7436    0.3545    0.0000 C   0  0  0  0  0  0  0  0  0  0  0  0
   -0.1206    0.8575    0.0000 C   0  0  0  0  0  0  0  0  0  0  0  0
   -0.9884    0.3605    0.0000 C   0  0  0  0  0  0  0  0  0  0  0  0
   -1.8526    0.8637    0.0000 C   0  0  0  0  0  0  0  0  0  0  0  0
   -1.8492    1.8637    0.0000 C   0  0  0  0  0  0  0  0  0  0  0  0
   -0.9812    2.3607    0.0000 C   0  0  0  0  0  0  0  0  0  0  0  0
   -0.1172    1.8575    0.0000 C   0  0  0  0  0  0  0  0  0  0  0  0
    1.6042   -1.1487    0.0000 C   0  0  0  0  0  0  0  0  0  0  0  0
    1.6006   -2.1487    0.0000 R   0  0  0  0  0  0  0  0  0  0  0  0
    2.4720   -0.6517    0.0000 O   0  0  0  0  0  0  0  0  0  0  0  0
  1  2  1  0
  2  3  1  0
  2  4  1  0
  4  5  1  6
  5  6  1  0
  6  7  2  0
  7  8  1  0
  8  9  2  0
  9 10  1  0
 10 11  2  0
  4 12  1  0
 12 13  1  0
 12 14  2  0
 11  6  1  0
M  ISO  2   1   1  13   2
V    1 *
V   13 *
M  END
>  <symbol>  (642) 
D_meF

>  <m_Rgroups>  (642) 
[H],[OH],None,None,None,None

>  <m_abbr>  (642) 
D_meF

>  <m_name>  (642) 
NMe-D-phenylalanine

>  <m_type>  (642) 
aa

>  <m_subtype>  (642) 
modified

>  <m_chem_types>  (642) 
1:backbone_n,2:backbone_c

$$$$

     RDKit          2D

 11 10  0  0  0  0  0  0  0  0999 V2000
   -2.0465    0.1859    0.0000 R   0  0  0  0  0  0  0  0  0  0  0  0
   -1.1795    0.6841    0.0000 N   0  0  0  0  0  0  0  0  0  0  0  0
   -1.1775    1.6841    0.0000 C   0  0  0  0  0  0  0  0  0  0  0  0
   -0.3145    0.1825    0.0000 C   0  0  0  0  0  0  0  0  0  0  0  0
   -0.3165   -0.8175    0.0000 C   0  0  0  0  0  0  0  0  0  0  0  0
    0.5485   -1.3193    0.0000 C   0  0  0  0  0  0  0  0  0  0  0  0
    0.5465   -2.3193    0.0000 C   0  0  0  0  0  0  0  0  0  0  0  0
    1.4155   -0.8209    0.0000 C   0  0  0  0  0  0  0  0  0  0  0  0
    0.5525    0.6807    0.0000 C   0  0  0  0  0  0  0  0  0  0  0  0
    1.4175    0.1789    0.0000 R   0  0  0  0  0  0  0  0  0  0  0  0
    0.5545    1.6807    0.0000 O   0  0  0  0  0  0  0  0  0  0  0  0
  1  2  1  0
  2  3  1  0
  2  4  1  0
  4  5  1  1
  5  6  1  0
  6  7  1  0
  6  8  1  0
  4  9  1  0
  9 10  1  0
  9 11  2  0
M  ISO  2   1   1  10   2
V    1 *
V   10 *
M  END
>  <symbol>  (643) 
D_meL

>  <m_Rgroups>  (643) 
[H],[OH],None,None,None,None

>  <m_abbr>  (643) 
D_meL

>  <m_name>  (643) 
NMe-D-leucine

>  <m_type>  (643) 
aa

>  <m_subtype>  (643) 
modified

>  <m_chem_types>  (643) 
1:backbone_n,2:backbone_c

$$$$

     RDKit          2D

 10  9  0  0  0  0  0  0  0  0999 V2000
   -0.8648    1.5006    0.0000 R   0  0  0  0  0  0  0  0  0  0  0  0
   -0.8656    0.5006    0.0000 N   0  0  0  0  0  0  0  0  0  0  0  0
   -1.7320    0.0014    0.0000 C   0  0  0  0  0  0  0  0  0  0  0  0
   -0.0000    0.0000    0.0000 C   0  0  0  0  0  0  0  0  0  0  0  0
   -0.0008   -1.0000    0.0000 C   0  0  0  0  0  0  0  0  0  0  0  0
    0.8648   -1.5006    0.0000 C   0  0  0  0  0  0  0  0  0  0  0  0
   -0.8672   -1.4994    0.0000 C   0  0  0  0  0  0  0  0  0  0  0  0
    0.8664    0.4994    0.0000 C   0  0  0  0  0  0  0  0  0  0  0  0
    1.7320   -0.0014    0.0000 R   0  0  0  0  0  0  0  0  0  0  0  0
    0.8672    1.4994    0.0000 O   0  0  0  0  0  0  0  0  0  0  0  0
  1  2  1  0
  2  3  1  0
  2  4  1  0
  4  5  1  1
  5  6  1  0
  5  7  1  0
  4  8  1  0
  8  9  1  0
  8 10  2  0
M  ISO  2   1   1   9   2
V    1 *
V    9 *
M  END
>  <symbol>  (644) 
D_meV

>  <m_Rgroups>  (644) 
[H],[OH],None,None,None,None

>  <m_abbr>  (644) 
D_meV

>  <m_name>  (644) 
NMe-D-valine

>  <m_type>  (644) 
aa

>  <m_subtype>  (644) 
modified

>  <m_chem_types>  (644) 
1:backbone_n,2:backbone_c

$$$$

     RDKit          2D

 11 10  0  0  0  0  0  0  0  0999 V2000
   -1.8103    0.2308    0.0000 R   0  0  0  0  0  0  0  0  0  0  0  0
   -0.9433    0.7292    0.0000 N   0  0  0  0  0  0  0  0  0  0  0  0
   -0.9413    1.7290    0.0000 C   0  0  0  0  0  0  0  0  0  0  0  0
   -0.0783    0.2274    0.0000 C   0  0  0  0  0  0  0  0  0  0  0  0
   -0.0803   -0.7726    0.0000 C   0  0  0  0  0  0  0  0  0  0  0  0
   -0.9473   -1.2708    0.0000 C   0  0  0  0  0  0  0  0  0  0  0  0
    0.7847   -1.2742    0.0000 C   0  0  0  0  0  0  0  0  0  0  0  0
    0.7827   -2.2742    0.0000 C   0  0  0  0  0  0  0  0  0  0  0  0
    0.7887    0.7256    0.0000 C   0  0  0  0  0  0  0  0  0  0  0  0
    1.6537    0.2240    0.0000 R   0  0  0  0  0  0  0  0  0  0  0  0
    0.7907    1.7256    0.0000 O   0  0  0  0  0  0  0  0  0  0  0  0
  1  2  1  0
  2  3  1  0
  4  2  1  1
  4  5  1  0
  5  6  1  6
  5  7  1  0
  7  8  1  0
  4  9  1  0
  9 10  1  0
  9 11  2  0
M  ISO  2   1   1  10   2
V    1 *
V   10 *
M  END
>  <symbol>  (645) 
D_meI

>  <m_Rgroups>  (645) 
[H],[OH],None,None,None,None

>  <m_abbr>  (645) 
D_meI

>  <m_name>  (645) 
NMe-D-isoleucine

>  <m_type>  (645) 
aa

>  <m_subtype>  (645) 
modified

>  <m_chem_types>  (645) 
1:backbone_n,2:backbone_c

$$$$

     RDKit          2D

 16 16  0  0  0  0  0  0  0  0999 V2000
   -3.0227    2.2431    0.0000 R   0  0  0  0  0  0  0  0  0  0  0  0
   -1.8997    1.2486    0.0000 N   0  0  0  0  0  0  0  0  0  0  0  0
   -0.4770    1.7239    0.0000 C   0  0  0  0  0  0  0  0  0  0  0  0
   -2.1995   -0.2211    0.0000 C   0  0  0  0  0  0  0  0  0  0  0  0
   -1.0766   -1.2156    0.0000 C   0  0  0  0  0  0  0  0  0  0  0  0
    0.3462   -0.7404    0.0000 C   0  0  0  0  0  0  0  0  0  0  0  0
    0.6459    0.7294    0.0000 C   0  0  0  0  0  0  0  0  0  0  0  0
    2.0687    1.2046    0.0000 C   0  0  0  0  0  0  0  0  0  0  0  0
    3.1916    0.2101    0.0000 C   0  0  0  0  0  0  0  0  0  0  0  0
    4.6143    0.6854    0.0000 O   0  0  0  0  0  0  0  0  0  0  0  0
    5.7373   -0.3091    0.0000 R   0  0  0  0  0  0  0  0  0  0  0  0
    2.8918   -1.2596    0.0000 C   0  0  0  0  0  0  0  0  0  0  0  0
    1.4691   -1.7348    0.0000 C   0  0  0  0  0  0  0  0  0  0  0  0
   -3.6222   -0.6964    0.0000 C   0  0  0  0  0  0  0  0  0  0  0  0
   -4.7452    0.2981    0.0000 R   0  0  0  0  0  0  0  0  0  0  0  0
   -3.9220   -2.1661    0.0000 O   0  0  0  0  0  0  0  0  0  0  0  0
  1  2  1  0
  2  3  1  0
  2  4  1  0
  4  5  1  6
  5  6  1  0
  6  7  1  0
  7  8  2  0
  8  9  1  0
  9 10  1  0
 10 11  1  0
  9 12  2  0
 12 13  1  0
  4 14  1  0
 14 15  1  0
 14 16  2  0
 13  6  2  0
M  ISO  3   1   1  11   3  15   2
V    1 *
V   11 *
V   15 *
M  END
>  <symbol>  (646) 
D_meY

>  <m_Rgroups>  (646) 
[H],[OH],[H],None,None,None

>  <m_abbr>  (646) 
D_meY

>  <m_name>  (646) 
NMe-D-tyrosine

>  <m_type>  (646) 
aa

>  <m_subtype>  (646) 
modified

>  <m_chem_types>  (646) 
1:backbone_n,2:backbone_c

$$$$

     RDKit          2D

 10  9  0  0  0  0  0  0  0  0999 V2000
   -2.8539   -0.2134    0.0000 R   0  0  0  0  0  0  0  0  0  0  0  0
   -1.5385   -0.9344    0.0000 N   0  0  0  0  0  0  0  0  0  0  0  0
   -1.5052   -2.4340    0.0000 C   0  0  0  0  0  0  0  0  0  0  0  0
   -0.2564   -0.1557    0.0000 C   0  0  0  0  0  0  0  0  0  0  0  0
    1.0589   -0.8767    0.0000 C   0  0  0  0  0  0  0  0  0  0  0  0
    2.3410   -0.0981    0.0000 O   0  0  0  0  0  0  0  0  0  0  0  0
    3.6564   -0.8191    0.0000 R   0  0  0  0  0  0  0  0  0  0  0  0
   -0.2897    1.3439    0.0000 C   0  0  0  0  0  0  0  0  0  0  0  0
    0.9924    2.1225    0.0000 R   0  0  0  0  0  0  0  0  0  0  0  0
   -1.6051    2.0649    0.0000 O   0  0  0  0  0  0  0  0  0  0  0  0
  1  2  1  0
  2  3  1  0
  2  4  1  0
  4  5  1  1
  5  6  1  0
  6  7  1  0
  4  8  1  0
  8  9  1  0
  8 10  2  0
M  ISO  3   1   1   7   3   9   2
V    1 *
V    7 *
V    9 *
M  END
>  <symbol>  (647) 
D_meS

>  <m_Rgroups>  (647) 
[H],[OH],[H],None,None,None

>  <m_abbr>  (647) 
D_meS

>  <m_name>  (647) 
NMe-D-serine

>  <m_type>  (647) 
aa

>  <m_subtype>  (647) 
modified

>  <m_chem_types>  (647) 
1:backbone_n,2:backbone_c

$$$$

     RDKit          2D

 11 10  0  0  0  0  0  0  0  0999 V2000
   -2.0463    0.3676    0.0000 R   0  0  0  0  0  0  0  0  0  0  0  0
   -1.1791    0.8660    0.0000 N   0  0  0  0  0  0  0  0  0  0  0  0
   -1.1771    1.8660    0.0000 C   0  0  0  0  0  0  0  0  0  0  0  0
   -0.3141    0.3642    0.0000 C   0  0  0  0  0  0  0  0  0  0  0  0
   -0.3163   -0.6358    0.0000 C   0  0  0  0  0  0  0  0  0  0  0  0
    0.5487   -1.1374    0.0000 C   0  0  0  0  0  0  0  0  0  0  0  0
    0.5467   -2.1374    0.0000 C   0  0  0  0  0  0  0  0  0  0  0  0
    1.4117   -2.6392    0.0000 C   0  0  0  0  0  0  0  0  0  0  0  0
    0.5529    0.8624    0.0000 C   0  0  0  0  0  0  0  0  0  0  0  0
    1.4179    0.3608    0.0000 R   0  0  0  0  0  0  0  0  0  0  0  0
    0.5549    1.8624    0.0000 O   0  0  0  0  0  0  0  0  0  0  0  0
  1  2  1  0
  2  3  1  0
  2  4  1  0
  4  5  1  1
  5  6  1  0
  6  7  1  0
  7  8  1  0
  4  9  1  0
  9 10  1  0
  9 11  2  0
M  ISO  2   1   1  10   2
V    1 *
V   10 *
M  END
>  <symbol>  (648) 
D_meNle

>  <m_Rgroups>  (648) 
[H],[OH],None,None,None,None

>  <m_abbr>  (648) 
D_meNle

>  <m_name>  (648) 
NMe-D-norleucine

>  <m_type>  (648) 
aa

>  <m_subtype>  (648) 
modified

>  <m_chem_types>  (648) 
1:backbone_n,2:backbone_c

$$$$

     RDKit          2D

 12 11  0  0  0  0  0  0  0  0999 V2000
   -0.7447   -1.5444    0.0000 R   0  0  0  0  0  0  0  0  0  0  0  0
   -0.4903   -0.5772    0.0000 N   0  0  0  0  0  0  0  0  0  0  0  0
   -1.2007    0.1266    0.0000 R   0  0  0  0  0  0  0  0  0  0  0  0
    0.4745   -0.3140    0.0000 C   0  0  0  0  0  0  0  0  0  0  0  0
    0.2201   -1.2812    0.0000 C   0  0  0  0  0  0  0  0  0  0  0  0
    0.2113    0.6506    0.0000 C   0  0  0  0  0  0  0  0  0  0  0  0
   -0.7559    0.9050    0.0000 C   0  0  0  0  0  0  0  0  0  0  0  0
   -1.0191    1.8698    0.0000 S   0  0  0  0  0  0  0  0  0  0  0  0
   -1.9863    2.1242    0.0000 C   0  0  0  0  0  0  0  0  0  0  0  0
    1.4415   -0.5684    0.0000 C   0  0  0  0  0  0  0  0  0  0  0  0
    1.7047   -1.5330    0.0000 R   0  0  0  0  0  0  0  0  0  0  0  0
    2.1453    0.1420    0.0000 O   0  0  0  0  0  0  0  0  0  0  0  0
  1  2  1  0
  2  3  1  0
  2  4  1  0
  4  5  1  6
  4  6  1  0
  6  7  1  0
  7  8  1  0
  8  9  1  0
  4 10  1  0
 10 11  1  0
 10 12  2  0
M  ISO  3   1   1   3   3  11   2
V    1 *
V    3 *
V   11 *
M  END
>  <symbol>  (649) 
aMeMet

>  <m_Rgroups>  (649) 
[H],[OH],[H],None,None,None

>  <m_abbr>  (649) 
aMeMet

>  <m_name>  (649) 
L-alpha-methylmethionine (S)

>  <m_type>  (649) 
aa

>  <m_subtype>  (649) 
modified

>  <m_chem_types>  (649) 
1:backbone_n,2:backbone_c,3:backbone_n_mod

$$$$

     RDKit          2D

 12 11  0  0  0  0  0  0  0  0999 V2000
   -0.7447   -1.5444    0.0000 R   0  0  0  0  0  0  0  0  0  0  0  0
   -0.4903   -0.5772    0.0000 N   0  0  0  0  0  0  0  0  0  0  0  0
   -1.2007    0.1266    0.0000 R   0  0  0  0  0  0  0  0  0  0  0  0
    0.4745   -0.3140    0.0000 C   0  0  0  0  0  0  0  0  0  0  0  0
    0.2201   -1.2812    0.0000 C   0  0  0  0  0  0  0  0  0  0  0  0
    0.2113    0.6506    0.0000 C   0  0  0  0  0  0  0  0  0  0  0  0
   -0.7559    0.9050    0.0000 C   0  0  0  0  0  0  0  0  0  0  0  0
   -1.0191    1.8698    0.0000 C   0  0  0  0  0  0  0  0  0  0  0  0
   -1.9863    2.1242    0.0000 C   0  0  0  0  0  0  0  0  0  0  0  0
    1.4415   -0.5684    0.0000 C   0  0  0  0  0  0  0  0  0  0  0  0
    1.7047   -1.5330    0.0000 R   0  0  0  0  0  0  0  0  0  0  0  0
    2.1453    0.1420    0.0000 O   0  0  0  0  0  0  0  0  0  0  0  0
  1  2  1  0
  2  3  1  0
  2  4  1  0
  4  5  1  6
  4  6  1  0
  6  7  1  0
  7  8  1  0
  8  9  1  0
  4 10  1  0
 10 11  1  0
 10 12  2  0
M  ISO  3   1   1   3   3  11   2
V    1 *
V    3 *
V   11 *
M  END
>  <symbol>  (650) 
aMeNle

>  <m_Rgroups>  (650) 
[H],[OH],[H],None,None,None

>  <m_abbr>  (650) 
aMeNle

>  <m_name>  (650) 
L-alpha-methylnorleucine (S)

>  <m_type>  (650) 
aa

>  <m_subtype>  (650) 
modified

>  <m_chem_types>  (650) 
1:backbone_n,2:backbone_c,3:backbone_n_mod

$$$$

     RDKit          2D

 11 10  0  0  0  0  0  0  0  0999 V2000
   -0.9253   -1.3512    0.0000 R   0  0  0  0  0  0  0  0  0  0  0  0
   -0.6709   -0.3842    0.0000 N   0  0  0  0  0  0  0  0  0  0  0  0
   -1.3813    0.3198    0.0000 R   0  0  0  0  0  0  0  0  0  0  0  0
    0.2939   -0.1208    0.0000 C   0  0  0  0  0  0  0  0  0  0  0  0
    0.0395   -1.0880    0.0000 C   0  0  0  0  0  0  0  0  0  0  0  0
    0.0305    0.8438    0.0000 C   0  0  0  0  0  0  0  0  0  0  0  0
   -0.9365    1.0982    0.0000 C   0  0  0  0  0  0  0  0  0  0  0  0
   -1.1997    2.0628    0.0000 C   0  0  0  0  0  0  0  0  0  0  0  0
    1.2609   -0.3752    0.0000 C   0  0  0  0  0  0  0  0  0  0  0  0
    1.5241   -1.3400    0.0000 R   0  0  0  0  0  0  0  0  0  0  0  0
    1.9647    0.3352    0.0000 O   0  0  0  0  0  0  0  0  0  0  0  0
  1  2  1  0
  2  3  1  0
  2  4  1  0
  4  5  1  6
  4  6  1  0
  6  7  1  0
  7  8  1  0
  4  9  1  0
  9 10  1  0
  9 11  2  0
M  ISO  3   1   1   3   3  10   2
V    1 *
V    3 *
V   10 *
M  END
>  <symbol>  (651) 
aMeNva

>  <m_Rgroups>  (651) 
[H],[OH],[H],None,None,None

>  <m_abbr>  (651) 
aMeNva

>  <m_name>  (651) 
L-alpha-methylnorvaline (S)

>  <m_type>  (651) 
aa

>  <m_subtype>  (651) 
modified

>  <m_chem_types>  (651) 
1:backbone_n,2:backbone_c,3:backbone_n_mod

$$$$

     RDKit          2D

 10  9  0  0  0  0  0  0  0  0999 V2000
   -1.8821   -0.1388    0.0000 R   0  0  0  0  0  0  0  0  0  0  0  0
   -1.0157    0.3606    0.0000 N   0  0  0  0  0  0  0  0  0  0  0  0
   -1.0149    1.3606    0.0000 R   0  0  0  0  0  0  0  0  0  0  0  0
   -0.1501   -0.1400    0.0000 C   0  0  0  0  0  0  0  0  0  0  0  0
   -0.6507   -1.0056    0.0000 C   0  0  0  0  0  0  0  0  0  0  0  0
    0.3493   -1.0064    0.0000 C   0  0  0  0  0  0  0  0  0  0  0  0
    1.3493   -1.0072    0.0000 C   0  0  0  0  0  0  0  0  0  0  0  0
    0.7163    0.3592    0.0000 C   0  0  0  0  0  0  0  0  0  0  0  0
    1.5819   -0.1414    0.0000 R   0  0  0  0  0  0  0  0  0  0  0  0
    0.7171    1.3592    0.0000 O   0  0  0  0  0  0  0  0  0  0  0  0
  1  2  1  0
  2  3  1  0
  2  4  1  0
  4  5  1  1
  4  6  1  0
  6  7  1  0
  4  8  1  0
  8  9  1  0
  8 10  2  0
M  ISO  3   1   1   3   3   9   2
V    1 *
V    3 *
V    9 *
M  END
>  <symbol>  (652) 
aMeAbu

>  <m_Rgroups>  (652) 
[H],[OH],[H],None,None,None

>  <m_abbr>  (652) 
aMeAbu

>  <m_name>  (652) 
L-alpha-methyl-Abu (S)

>  <m_type>  (652) 
aa

>  <m_subtype>  (652) 
modified

>  <m_chem_types>  (652) 
1:backbone_n,2:backbone_c,3:backbone_n_mod

$$$$

     RDKit          2D

 12 11  0  0  0  0  0  0  0  0999 V2000
   -1.9405   -1.0935    0.0000 R   0  0  0  0  0  0  0  0  0  0  0  0
   -0.4893   -1.4732    0.0000 N   0  0  0  0  0  0  0  0  0  0  0  0
   -0.0926   -2.9197    0.0000 R   0  0  0  0  0  0  0  0  0  0  0  0
    0.5651   -0.4063    0.0000 C   0  0  0  0  0  0  0  0  0  0  0  0
    1.6320   -1.4607    0.0000 C   0  0  0  0  0  0  0  0  0  0  0  0
    1.6195    0.6606    0.0000 C   0  0  0  0  0  0  0  0  0  0  0  0
    1.2227    2.1072    0.0000 R   0  0  0  0  0  0  0  0  0  0  0  0
    3.0706    0.2809    0.0000 O   0  0  0  0  0  0  0  0  0  0  0  0
   -0.5018    0.6481    0.0000 C   0  0  0  0  0  0  0  0  0  0  0  0
   -0.1221    2.0993    0.0000 C   0  0  0  0  0  0  0  0  0  0  0  0
   -1.9484    0.2514    0.0000 O   0  0  0  0  0  0  0  0  0  0  0  0
   -3.0153    1.3058    0.0000 R   0  0  0  0  0  0  0  0  0  0  0  0
  1  2  1  0
  2  3  1  0
  2  4  1  0
  4  5  1  6
  4  6  1  0
  6  7  1  0
  6  8  2  0
  4  9  1  0
  9 10  1  6
  9 11  1  0
 11 12  1  0
M  ISO  4   1   1   3   3   7   2  12   4
V    1 *
V    3 *
V    7 *
V   12 *
M  END
>  <symbol>  (653) 
aMeThr

>  <m_Rgroups>  (653) 
[H],[OH],[H],[H],None,None

>  <m_abbr>  (653) 
aMeThr

>  <m_name>  (653) 
L-alpha-methylthreonine (S)

>  <m_type>  (653) 
aa

>  <m_subtype>  (653) 
modified

>  <m_chem_types>  (653) 
1:backbone_n,2:backbone_c,3:backbone_n_mod

$$$$

     RDKit          2D

 16 16  0  0  0  0  0  0  0  0999 V2000
   -1.0372   -1.2992    0.0000 R   0  0  0  0  0  0  0  0  0  0  0  0
   -0.0718   -1.5596    0.0000 N   0  0  0  0  0  0  0  0  0  0  0  0
    0.1852   -2.5260    0.0000 R   0  0  0  0  0  0  0  0  0  0  0  0
    0.6364   -0.8538    0.0000 C   0  0  0  0  0  0  0  0  0  0  0  0
   -0.3290   -0.5932    0.0000 C   0  0  0  0  0  0  0  0  0  0  0  0
    0.8970    0.1116    0.0000 C   0  0  0  0  0  0  0  0  0  0  0  0
    0.1912    0.8200    0.0000 C   0  0  0  0  0  0  0  0  0  0  0  0
   -0.7752    0.5628    0.0000 C   0  0  0  0  0  0  0  0  0  0  0  0
   -1.4810    1.2712    0.0000 C   0  0  0  0  0  0  0  0  0  0  0  0
   -1.2204    2.2366    0.0000 C   0  0  0  0  0  0  0  0  0  0  0  0
   -1.9262    2.9450    0.0000 F   0  0  0  0  0  0  0  0  0  0  0  0
   -0.2540    2.4938    0.0000 C   0  0  0  0  0  0  0  0  0  0  0  0
    0.4518    1.7854    0.0000 C   0  0  0  0  0  0  0  0  0  0  0  0
    1.3424   -1.5622    0.0000 C   0  0  0  0  0  0  0  0  0  0  0  0
    1.0818   -2.5276    0.0000 R   0  0  0  0  0  0  0  0  0  0  0  0
    2.3088   -1.3052    0.0000 O   0  0  0  0  0  0  0  0  0  0  0  0
  1  2  1  0
  2  3  1  0
  2  4  1  0
  4  5  1  6
  4  6  1  0
  6  7  1  0
  7  8  1  0
  8  9  2  0
  9 10  1  0
 10 11  1  0
 10 12  2  0
 12 13  1  0
  4 14  1  0
 14 15  1  0
 14 16  2  0
 13  7  2  0
M  ISO  3   1   1   3   3  15   2
V    1 *
V    3 *
V   15 *
M  END
>  <symbol>  (654) 
aMePhe_4F

>  <m_Rgroups>  (654) 
[H],[OH],[H],None,None,None

>  <m_abbr>  (654) 
aMePhe_4F

>  <m_name>  (654) 
L-alpha-methyl-4-F-Phe (S)

>  <m_type>  (654) 
aa

>  <m_subtype>  (654) 
modified

>  <m_chem_types>  (654) 
1:backbone_n,2:backbone_c,3:backbone_n_mod

$$$$

     RDKit          2D

 16 16  0  0  0  0  0  0  0  0999 V2000
   -1.0372   -1.2992    0.0000 R   0  0  0  0  0  0  0  0  0  0  0  0
   -0.0718   -1.5596    0.0000 N   0  0  0  0  0  0  0  0  0  0  0  0
    0.1852   -2.5260    0.0000 R   0  0  0  0  0  0  0  0  0  0  0  0
    0.6364   -0.8538    0.0000 C   0  0  0  0  0  0  0  0  0  0  0  0
   -0.3290   -0.5932    0.0000 C   0  0  0  0  0  0  0  0  0  0  0  0
    0.8970    0.1116    0.0000 C   0  0  0  0  0  0  0  0  0  0  0  0
    0.1912    0.8200    0.0000 C   0  0  0  0  0  0  0  0  0  0  0  0
   -0.7752    0.5628    0.0000 C   0  0  0  0  0  0  0  0  0  0  0  0
   -1.4810    1.2712    0.0000 C   0  0  0  0  0  0  0  0  0  0  0  0
   -1.2204    2.2366    0.0000 C   0  0  0  0  0  0  0  0  0  0  0  0
   -1.9262    2.9450    0.0000 Cl  0  0  0  0  0  0  0  0  0  0  0  0
   -0.2540    2.4938    0.0000 C   0  0  0  0  0  0  0  0  0  0  0  0
    0.4518    1.7854    0.0000 C   0  0  0  0  0  0  0  0  0  0  0  0
    1.3424   -1.5622    0.0000 C   0  0  0  0  0  0  0  0  0  0  0  0
    1.0818   -2.5276    0.0000 R   0  0  0  0  0  0  0  0  0  0  0  0
    2.3088   -1.3052    0.0000 O   0  0  0  0  0  0  0  0  0  0  0  0
  1  2  1  0
  2  3  1  0
  2  4  1  0
  4  5  1  6
  4  6  1  0
  6  7  1  0
  7  8  1  0
  8  9  2  0
  9 10  1  0
 10 11  1  0
 10 12  2  0
 12 13  1  0
  4 14  1  0
 14 15  1  0
 14 16  2  0
 13  7  2  0
M  ISO  3   1   1   3   3  15   2
V    1 *
V    3 *
V   15 *
M  END
>  <symbol>  (655) 
aMePhe_4Cl

>  <m_Rgroups>  (655) 
[H],[OH],[H],None,None,None

>  <m_abbr>  (655) 
aMePhe_4Cl

>  <m_name>  (655) 
L-alpha-methyl-4-Cl-Phe (S)

>  <m_type>  (655) 
aa

>  <m_subtype>  (655) 
modified

>  <m_chem_types>  (655) 
1:backbone_n,2:backbone_c,3:backbone_n_mod

$$$$

     RDKit          2D

 17 17  0  0  0  0  0  0  0  0999 V2000
   -0.9392   -1.5290    0.0000 R   0  0  0  0  0  0  0  0  0  0  0  0
    0.0262   -1.7896    0.0000 N   0  0  0  0  0  0  0  0  0  0  0  0
    0.2832   -2.7560    0.0000 R   0  0  0  0  0  0  0  0  0  0  0  0
    0.7346   -1.0838    0.0000 C   0  0  0  0  0  0  0  0  0  0  0  0
   -0.2310   -0.8232    0.0000 C   0  0  0  0  0  0  0  0  0  0  0  0
    0.9950   -0.1184    0.0000 C   0  0  0  0  0  0  0  0  0  0  0  0
    0.2892    0.5900    0.0000 C   0  0  0  0  0  0  0  0  0  0  0  0
   -0.6772    0.3330    0.0000 C   0  0  0  0  0  0  0  0  0  0  0  0
   -1.3830    1.0412    0.0000 C   0  0  0  0  0  0  0  0  0  0  0  0
   -1.1224    2.0066    0.0000 C   0  0  0  0  0  0  0  0  0  0  0  0
   -1.8282    2.7150    0.0000 O   0  0  0  0  0  0  0  0  0  0  0  0
   -1.5676    3.6804    0.0000 C   0  0  0  0  0  0  0  0  0  0  0  0
   -0.1560    2.2638    0.0000 C   0  0  0  0  0  0  0  0  0  0  0  0
    0.5498    1.5554    0.0000 C   0  0  0  0  0  0  0  0  0  0  0  0
    1.4404   -1.7922    0.0000 C   0  0  0  0  0  0  0  0  0  0  0  0
    1.1798   -2.7576    0.0000 R   0  0  0  0  0  0  0  0  0  0  0  0
    2.4068   -1.5350    0.0000 O   0  0  0  0  0  0  0  0  0  0  0  0
  1  2  1  0
  2  3  1  0
  2  4  1  0
  4  5  1  6
  4  6  1  0
  6  7  1  0
  7  8  1  0
  8  9  2  0
  9 10  1  0
 10 11  1  0
 11 12  1  0
 10 13  2  0
 13 14  1  0
  4 15  1  0
 15 16  1  0
 15 17  2  0
 14  7  2  0
M  ISO  3   1   1   3   3  16   2
V    1 *
V    3 *
V   16 *
M  END
>  <symbol>  (656) 
aMePhe_4OMe

>  <m_Rgroups>  (656) 
[H],[OH],[H],None,None,None

>  <m_abbr>  (656) 
aMePhe_4OMe

>  <m_name>  (656) 
L-alpha-methyl-4-OMe-Phe (S)

>  <m_type>  (656) 
aa

>  <m_subtype>  (656) 
modified

>  <m_chem_types>  (656) 
1:backbone_n,2:backbone_c,3:backbone_n_mod

$$$$

     RDKit          2D

 15 15  0  0  0  0  0  0  0  0999 V2000
   -1.1656   -1.1028    0.0000 R   0  0  0  0  0  0  0  0  0  0  0  0
   -0.2002   -1.3634    0.0000 N   0  0  0  0  0  0  0  0  0  0  0  0
    0.0568   -2.3296    0.0000 R   0  0  0  0  0  0  0  0  0  0  0  0
    0.5082   -0.6574    0.0000 C   0  0  0  0  0  0  0  0  0  0  0  0
   -0.4574   -0.3970    0.0000 C   0  0  0  0  0  0  0  0  0  0  0  0
    0.7686    0.3080    0.0000 C   0  0  0  0  0  0  0  0  0  0  0  0
    0.0628    1.0164    0.0000 C   0  0  0  0  0  0  0  0  0  0  0  0
   -0.9036    0.7592    0.0000 C   0  0  0  0  0  0  0  0  0  0  0  0
   -1.6094    1.4676    0.0000 C   0  0  0  0  0  0  0  0  0  0  0  0
   -1.3488    2.4330    0.0000 C   0  0  0  0  0  0  0  0  0  0  0  0
   -0.3824    2.6900    0.0000 C   0  0  0  0  0  0  0  0  0  0  0  0
    0.3234    1.9818    0.0000 C   0  0  0  0  0  0  0  0  0  0  0  0
    1.2140   -1.3658    0.0000 C   0  0  0  0  0  0  0  0  0  0  0  0
    0.9534   -2.3312    0.0000 R   0  0  0  0  0  0  0  0  0  0  0  0
    2.1804   -1.1088    0.0000 O   0  0  0  0  0  0  0  0  0  0  0  0
  1  2  1  0
  2  3  1  0
  2  4  1  0
  4  5  1  1
  4  6  1  0
  6  7  1  0
  7  8  2  0
  8  9  1  0
  9 10  2  0
 10 11  1  0
 11 12  2  0
  4 13  1  0
 13 14  1  0
 13 15  2  0
 12  7  1  0
M  ISO  3   1   1   3   3  14   2
V    1 *
V    3 *
V   14 *
M  END
>  <symbol>  (657) 
D_aMePhe

>  <m_Rgroups>  (657) 
[H],[OH],[H],None,None,None

>  <m_abbr>  (657) 
D_aMePhe

>  <m_name>  (657) 
D-alpha-methylphenylalanine (R)

>  <m_type>  (657) 
aa

>  <m_subtype>  (657) 
modified

>  <m_chem_types>  (657) 
1:backbone_n,2:backbone_c,3:backbone_n_mod

$$$$

     RDKit          2D

 12 11  0  0  0  0  0  0  0  0999 V2000
   -1.8009   -0.1433    0.0000 R   0  0  0  0  0  0  0  0  0  0  0  0
   -1.0937    0.5637    0.0000 N   0  0  0  0  0  0  0  0  0  0  0  0
   -1.3523    1.5297    0.0000 R   0  0  0  0  0  0  0  0  0  0  0  0
   -0.1278    0.3047    0.0000 C   0  0  0  0  0  0  0  0  0  0  0  0
   -0.3864    1.2705    0.0000 C   0  0  0  0  0  0  0  0  0  0  0  0
   -0.3868   -0.6613    0.0000 C   0  0  0  0  0  0  0  0  0  0  0  0
    0.3202   -1.3685    0.0000 C   0  0  0  0  0  0  0  0  0  0  0  0
    0.0612   -2.3343    0.0000 C   0  0  0  0  0  0  0  0  0  0  0  0
    1.2862   -1.1099    0.0000 C   0  0  0  0  0  0  0  0  0  0  0  0
    0.8381    0.5633    0.0000 C   0  0  0  0  0  0  0  0  0  0  0  0
    1.5451   -0.1439    0.0000 R   0  0  0  0  0  0  0  0  0  0  0  0
    1.0971    1.5291    0.0000 O   0  0  0  0  0  0  0  0  0  0  0  0
  1  2  1  0
  2  3  1  0
  2  4  1  0
  4  5  1  6
  4  6  1  0
  6  7  1  0
  7  8  1  0
  7  9  1  0
  4 10  1  0
 10 11  1  0
 10 12  2  0
M  ISO  3   1   1   3   3  11   2
V    1 *
V    3 *
V   11 *
M  END
>  <symbol>  (658) 
D_aMeLeu

>  <m_Rgroups>  (658) 
[H],[OH],[H],None,None,None

>  <m_abbr>  (658) 
D_aMeLeu

>  <m_name>  (658) 
D-alpha-methylleucine (R)

>  <m_type>  (658) 
aa

>  <m_subtype>  (658) 
modified

>  <m_chem_types>  (658) 
1:backbone_n,2:backbone_c,3:backbone_n_mod

$$$$

     RDKit          2D

 11 10  0  0  0  0  0  0  0  0999 V2000
   -1.6796   -0.3072    0.0000 R   0  0  0  0  0  0  0  0  0  0  0  0
   -0.7140   -0.5670    0.0000 N   0  0  0  0  0  0  0  0  0  0  0  0
   -0.4562   -1.5330    0.0000 R   0  0  0  0  0  0  0  0  0  0  0  0
   -0.0062    0.1394    0.0000 C   0  0  0  0  0  0  0  0  0  0  0  0
   -0.9718    0.3992    0.0000 C   0  0  0  0  0  0  0  0  0  0  0  0
    0.2536    1.1052    0.0000 C   0  0  0  0  0  0  0  0  0  0  0  0
   -0.4528    1.8130    0.0000 C   0  0  0  0  0  0  0  0  0  0  0  0
    1.2198    1.3630    0.0000 C   0  0  0  0  0  0  0  0  0  0  0  0
    0.7002   -0.5684    0.0000 C   0  0  0  0  0  0  0  0  0  0  0  0
    0.4404   -1.5340    0.0000 R   0  0  0  0  0  0  0  0  0  0  0  0
    1.6664   -0.3104    0.0000 O   0  0  0  0  0  0  0  0  0  0  0  0
  1  2  1  0
  2  3  1  0
  2  4  1  0
  4  5  1  1
  4  6  1  0
  6  7  1  0
  6  8  1  0
  4  9  1  0
  9 10  1  0
  9 11  2  0
M  ISO  3   1   1   3   3  10   2
V    1 *
V    3 *
V   10 *
M  END
>  <symbol>  (659) 
D_aMeVal

>  <m_Rgroups>  (659) 
[H],[OH],[H],None,None,None

>  <m_abbr>  (659) 
D_aMeVal

>  <m_name>  (659) 
D-alpha-methylvaline (R)

>  <m_type>  (659) 
aa

>  <m_subtype>  (659) 
modified

>  <m_chem_types>  (659) 
1:backbone_n,2:backbone_c,3:backbone_n_mod

$$$$

     RDKit          2D

 12 11  0  0  0  0  0  0  0  0999 V2000
   -1.6640   -0.5373    0.0000 R   0  0  0  0  0  0  0  0  0  0  0  0
   -0.6986   -0.7979    0.0000 N   0  0  0  0  0  0  0  0  0  0  0  0
   -0.4414   -1.7643    0.0000 R   0  0  0  0  0  0  0  0  0  0  0  0
    0.0098   -0.0921    0.0000 C   0  0  0  0  0  0  0  0  0  0  0  0
   -0.9556    0.1685    0.0000 C   0  0  0  0  0  0  0  0  0  0  0  0
    0.2704    0.8733    0.0000 C   0  0  0  0  0  0  0  0  0  0  0  0
    1.2368    1.1305    0.0000 C   0  0  0  0  0  0  0  0  0  0  0  0
   -0.4354    1.5817    0.0000 C   0  0  0  0  0  0  0  0  0  0  0  0
   -0.1750    2.5471    0.0000 C   0  0  0  0  0  0  0  0  0  0  0  0
    0.7156   -0.8005    0.0000 C   0  0  0  0  0  0  0  0  0  0  0  0
    0.4550   -1.7659    0.0000 R   0  0  0  0  0  0  0  0  0  0  0  0
    1.6820   -0.5433    0.0000 O   0  0  0  0  0  0  0  0  0  0  0  0
  1  2  1  0
  2  3  1  0
  2  4  1  0
  4  5  1  1
  4  6  1  0
  6  7  1  6
  6  8  1  0
  8  9  1  0
  4 10  1  0
 10 11  1  0
 10 12  2  0
M  ISO  3   1   1   3   3  11   2
V    1 *
V    3 *
V   11 *
M  END
>  <symbol>  (660) 
D_aMeIle

>  <m_Rgroups>  (660) 
[H],[OH],[H],None,None,None

>  <m_abbr>  (660) 
D_aMeIle

>  <m_name>  (660) 
D-alpha-methylisoleucine (R)

>  <m_type>  (660) 
aa

>  <m_subtype>  (660) 
modified

>  <m_chem_types>  (660) 
1:backbone_n,2:backbone_c,3:backbone_n_mod

$$$$

     RDKit          2D

 13 12  0  0  0  0  0  0  0  0999 V2000
   -1.0398    2.4415    0.0000 R   0  0  0  0  0  0  0  0  0  0  0  0
   -1.8741    1.1949    0.0000 N   0  0  0  0  0  0  0  0  0  0  0  0
   -3.3709    1.2942    0.0000 R   0  0  0  0  0  0  0  0  0  0  0  0
   -1.2118   -0.1509    0.0000 C   0  0  0  0  0  0  0  0  0  0  0  0
   -2.5576   -0.8133    0.0000 C   0  0  0  0  0  0  0  0  0  0  0  0
    0.1341    0.5115    0.0000 C   0  0  0  0  0  0  0  0  0  0  0  0
    1.3806   -0.3228    0.0000 C   0  0  0  0  0  0  0  0  0  0  0  0
    2.7264    0.3395    0.0000 C   0  0  0  0  0  0  0  0  0  0  0  0
    3.9730   -0.4948    0.0000 R   0  0  0  0  0  0  0  0  0  0  0  0
    2.8257    1.8363    0.0000 O   0  0  0  0  0  0  0  0  0  0  0  0
   -0.5494   -1.4967    0.0000 C   0  0  0  0  0  0  0  0  0  0  0  0
    0.9473   -1.5960    0.0000 R   0  0  0  0  0  0  0  0  0  0  0  0
   -1.3837   -2.7433    0.0000 O   0  0  0  0  0  0  0  0  0  0  0  0
  1  2  1  0
  2  3  1  0
  2  4  1  0
  4  5  1  1
  4  6  1  0
  6  7  1  0
  7  8  1  0
  8  9  1  0
  8 10  2  0
  4 11  1  0
 11 12  1  0
 11 13  2  0
M  ISO  4   1   1   3   3   9   4  12   2
V    1 *
V    3 *
V    9 *
V   12 *
M  END
>  <symbol>  (661) 
D_aMeGlu

>  <m_Rgroups>  (661) 
[H],[OH],[H],[OH],None,None

>  <m_abbr>  (661) 
D_aMeGlu

>  <m_name>  (661) 
D-alpha-methylglutamic acid (R)

>  <m_type>  (661) 
aa

>  <m_subtype>  (661) 
modified

>  <m_chem_types>  (661) 
1:backbone_n,2:backbone_c,3:backbone_n_mod

$$$$

     RDKit          2D

 12 11  0  0  0  0  0  0  0  0999 V2000
   -1.5133   -0.9293    0.0000 R   0  0  0  0  0  0  0  0  0  0  0  0
   -0.4483   -1.1776    0.0000 N   0  0  0  0  0  0  0  0  0  0  0  0
   -0.1912   -2.6554    0.0000 R   0  0  0  0  0  0  0  0  0  0  0  0
    0.7029   -0.2161    0.0000 C   0  0  0  0  0  0  0  0  0  0  0  0
    1.6645   -1.3673    0.0000 C   0  0  0  0  0  0  0  0  0  0  0  0
   -0.2587    0.9352    0.0000 C   0  0  0  0  0  0  0  0  0  0  0  0
   -1.7365    0.6781    0.0000 C   0  0  0  0  0  0  0  0  0  0  0  0
   -2.2351   -0.2951    0.0000 R   0  0  0  0  0  0  0  0  0  0  0  0
   -2.6980    1.8293    0.0000 O   0  0  0  0  0  0  0  0  0  0  0  0
    1.8542    0.7455    0.0000 C   0  0  0  0  0  0  0  0  0  0  0  0
    1.5970    2.2233    0.0000 R   0  0  0  0  0  0  0  0  0  0  0  0
    3.2625    0.2293    0.0000 O   0  0  0  0  0  0  0  0  0  0  0  0
  1  2  1  0
  2  3  1  0
  2  4  1  0
  4  5  1  1
  4  6  1  0
  6  7  1  0
  7  8  1  0
  7  9  2  0
  4 10  1  0
 10 11  1  0
 10 12  2  0
M  ISO  4   1   1   3   3   8   4  11   2
V    1 *
V    3 *
V    8 *
V   11 *
M  END
>  <symbol>  (662) 
D_aMeAsp

>  <m_Rgroups>  (662) 
[H],[OH],[H],[OH],None,None

>  <m_abbr>  (662) 
D_aMeAsp

>  <m_name>  (662) 
D-alpha-methylaspartic acid (R)

>  <m_type>  (662) 
aa

>  <m_subtype>  (662) 
modified

>  <m_chem_types>  (662) 
1:backbone_n,2:backbone_c,3:backbone_n_mod

$$$$

     RDKit          2D

 17 17  0  0  0  0  0  0  0  0999 V2000
   -4.7599   -0.4869    0.0000 R   0  0  0  0  0  0  0  0  0  0  0  0
   -3.3197   -0.9063    0.0000 N   0  0  0  0  0  0  0  0  0  0  0  0
   -2.9629   -2.3632    0.0000 R   0  0  0  0  0  0  0  0  0  0  0  0
   -2.2364    0.1312    0.0000 C   0  0  0  0  0  0  0  0  0  0  0  0
   -3.2740    1.2145    0.0000 C   0  0  0  0  0  0  0  0  0  0  0  0
   -1.1989   -0.9521    0.0000 C   0  0  0  0  0  0  0  0  0  0  0  0
    0.2580   -0.5952    0.0000 C   0  0  0  0  0  0  0  0  0  0  0  0
    0.6774    0.8450    0.0000 C   0  0  0  0  0  0  0  0  0  0  0  0
    2.1343    1.2019    0.0000 C   0  0  0  0  0  0  0  0  0  0  0  0
    3.1719    0.1186    0.0000 C   0  0  0  0  0  0  0  0  0  0  0  0
    4.6288    0.4755    0.0000 O   0  0  0  0  0  0  0  0  0  0  0  0
    5.6663   -0.6078    0.0000 R   0  0  0  0  0  0  0  0  0  0  0  0
    2.7525   -1.3216    0.0000 C   0  0  0  0  0  0  0  0  0  0  0  0
    1.2955   -1.6785    0.0000 C   0  0  0  0  0  0  0  0  0  0  0  0
   -1.1531    1.1688    0.0000 C   0  0  0  0  0  0  0  0  0  0  0  0
   -0.1697    1.1304    0.0000 R   0  0  0  0  0  0  0  0  0  0  0  0
   -1.5100    2.6257    0.0000 O   0  0  0  0  0  0  0  0  0  0  0  0
  1  2  1  0
  2  3  1  0
  2  4  1  0
  4  5  1  6
  4  6  1  0
  6  7  1  0
  7  8  1  0
  8  9  2  0
  9 10  1  0
 10 11  1  0
 11 12  1  0
 10 13  2  0
 13 14  1  0
  4 15  1  0
 15 16  1  0
 15 17  2  0
 14  7  2  0
M  ISO  4   1   1   3   3  12   4  16   2
V    1 *
V    3 *
V   12 *
V   16 *
M  END
>  <symbol>  (663) 
D_aMeTyr

>  <m_Rgroups>  (663) 
[H],[OH],[H],[H],None,None

>  <m_abbr>  (663) 
D_aMeTyr

>  <m_name>  (663) 
D-alpha-methyltyrosine (R)

>  <m_type>  (663) 
aa

>  <m_subtype>  (663) 
modified

>  <m_chem_types>  (663) 
1:backbone_n,2:backbone_c,3:backbone_n_mod

$$$$

     RDKit          2D

 15 14  0  0  0  0  0  0  0  0999 V2000
   -1.8599    2.4169    0.0000 R   0  0  0  0  0  0  0  0  0  0  0  0
   -2.5878    1.1053    0.0000 N   0  0  0  0  0  0  0  0  0  0  0  0
   -4.0876    1.0798    0.0000 R   0  0  0  0  0  0  0  0  0  0  0  0
   -1.8158   -0.1808    0.0000 C   0  0  0  0  0  0  0  0  0  0  0  0
   -3.1020   -0.9528    0.0000 C   0  0  0  0  0  0  0  0  0  0  0  0
   -0.5297    0.5911    0.0000 C   0  0  0  0  0  0  0  0  0  0  0  0
    0.7819   -0.1367    0.0000 C   0  0  0  0  0  0  0  0  0  0  0  0
    2.0680    0.6352    0.0000 C   0  0  0  0  0  0  0  0  0  0  0  0
    2.0425    2.1350    0.0000 O   0  0  0  0  0  0  0  0  0  0  0  0
    3.3796   -0.0927    0.0000 N   0  0  0  0  0  0  0  0  0  0  0  0
    4.6657    0.6793    0.0000 R   0  0  0  0  0  0  0  0  0  0  0  0
    3.4050   -1.5924    0.0000 R   0  0  0  0  0  0  0  0  0  0  0  0
   -1.0439   -1.4670    0.0000 C   0  0  0  0  0  0  0  0  0  0  0  0
    0.4559   -1.4415    0.0000 R   0  0  0  0  0  0  0  0  0  0  0  0
   -1.7717   -2.7785    0.0000 O   0  0  0  0  0  0  0  0  0  0  0  0
  1  2  1  0
  2  3  1  0
  2  4  1  0
  4  5  1  1
  4  6  1  0
  6  7  1  0
  7  8  1  0
  8  9  2  0
  8 10  1  0
 10 11  1  0
 10 12  1  0
  4 13  1  0
 13 14  1  0
 13 15  2  0
M  ISO  5   1   1   3   3  11   4  12   5  14   2
V    1 *
V    3 *
V   11 *
V   12 *
V   14 *
M  END
>  <symbol>  (664) 
D_aMeGln

>  <m_Rgroups>  (664) 
[H],[OH],[H],[H],[H],None

>  <m_abbr>  (664) 
D_aMeGln

>  <m_name>  (664) 
D-alpha-methylglutamine (R)

>  <m_type>  (664) 
aa

>  <m_subtype>  (664) 
modified

>  <m_chem_types>  (664) 
1:backbone_n,2:backbone_c,3:backbone_n_mod

$$$$

     RDKit          2D

 14 13  0  0  0  0  0  0  0  0999 V2000
   -1.2120    2.5044    0.0000 R   0  0  0  0  0  0  0  0  0  0  0  0
   -1.9967    1.2260    0.0000 N   0  0  0  0  0  0  0  0  0  0  0  0
   -3.4961    1.2663    0.0000 R   0  0  0  0  0  0  0  0  0  0  0  0
   -1.2819   -0.0928    0.0000 C   0  0  0  0  0  0  0  0  0  0  0  0
   -2.6006   -0.8076    0.0000 C   0  0  0  0  0  0  0  0  0  0  0  0
    0.0368    0.6220    0.0000 C   0  0  0  0  0  0  0  0  0  0  0  0
    1.3152   -0.1627    0.0000 C   0  0  0  0  0  0  0  0  0  0  0  0
    1.4193   -1.2512    0.0000 O   0  0  0  0  0  0  0  0  0  0  0  0
    2.6340    0.5521    0.0000 N   0  0  0  0  0  0  0  0  0  0  0  0
    3.9124   -0.2326    0.0000 R   0  0  0  0  0  0  0  0  0  0  0  0
    2.6743    2.0515    0.0000 R   0  0  0  0  0  0  0  0  0  0  0  0
   -0.5671   -1.4115    0.0000 C   0  0  0  0  0  0  0  0  0  0  0  0
    0.5142   -1.5740    0.0000 R   0  0  0  0  0  0  0  0  0  0  0  0
   -1.3518   -2.6899    0.0000 O   0  0  0  0  0  0  0  0  0  0  0  0
  1  2  1  0
  2  3  1  0
  2  4  1  0
  4  5  1  1
  4  6  1  0
  6  7  1  0
  7  8  2  0
  7  9  1  0
  9 10  1  0
  9 11  1  0
  4 12  1  0
 12 13  1  0
 12 14  2  0
M  ISO  5   1   1   3   3  10   4  11   5  13   2
V    1 *
V    3 *
V   10 *
V   11 *
V   13 *
M  END
>  <symbol>  (665) 
D_aMeAsn

>  <m_Rgroups>  (665) 
[H],[OH],[H],[H],[H],None

>  <m_abbr>  (665) 
D_aMeAsn

>  <m_name>  (665) 
D-alpha-methylasparagine (R)

>  <m_type>  (665) 
aa

>  <m_subtype>  (665) 
modified

>  <m_chem_types>  (665) 
1:backbone_n,2:backbone_c,3:backbone_n_mod

$$$$

     RDKit          2D

 11 10  0  0  0  0  0  0  0  0999 V2000
   -1.2617    2.2709    0.0000 R   0  0  0  0  0  0  0  0  0  0  0  0
   -1.6267    0.8160    0.0000 N   0  0  0  0  0  0  0  0  0  0  0  0
   -3.0691    0.4046    0.0000 R   0  0  0  0  0  0  0  0  0  0  0  0
   -0.5491   -0.2275    0.0000 C   0  0  0  0  0  0  0  0  0  0  0  0
   -1.5926   -1.3050    0.0000 C   0  0  0  0  0  0  0  0  0  0  0  0
    0.4944    0.8500    0.0000 C   0  0  0  0  0  0  0  0  0  0  0  0
    1.9493    0.4851    0.0000 O   0  0  0  0  0  0  0  0  0  0  0  0
    2.9928    1.5626    0.0000 R   0  0  0  0  0  0  0  0  0  0  0  0
    0.5284   -1.2710    0.0000 C   0  0  0  0  0  0  0  0  0  0  0  0
    1.9709   -0.8596    0.0000 R   0  0  0  0  0  0  0  0  0  0  0  0
    0.1634   -2.7260    0.0000 O   0  0  0  0  0  0  0  0  0  0  0  0
  1  2  1  0
  2  3  1  0
  2  4  1  0
  4  5  1  1
  4  6  1  0
  6  7  1  0
  7  8  1  0
  4  9  1  0
  9 10  1  0
  9 11  2  0
M  ISO  4   1   1   3   3   8   4  10   2
V    1 *
V    3 *
V    8 *
V   10 *
M  END
>  <symbol>  (666) 
D_aMeSer

>  <m_Rgroups>  (666) 
[H],[OH],[H],[H],None,None

>  <m_abbr>  (666) 
D_aMeSer

>  <m_name>  (666) 
D-alpha-methylserine (R)

>  <m_type>  (666) 
aa

>  <m_subtype>  (666) 
modified

>  <m_chem_types>  (666) 
1:backbone_n,2:backbone_c,3:backbone_n_mod

$$$$

     RDKit          2D

 20 19  0  0  0  0  0  0  0  0999 V2000
   -6.4543   -1.5999    0.0000 R   0  0  0  0  0  0  0  0  0  0  0  0
   -4.9575   -1.6968    0.0000 N   0  0  0  0  0  0  0  0  0  0  0  0
   -4.2930   -3.0416    0.0000 R   0  0  0  0  0  0  0  0  0  0  0  0
   -4.1251   -0.4489    0.0000 C   0  0  0  0  0  0  0  0  0  0  0  0
   -2.6283   -0.5458    0.0000 C   0  0  0  0  0  0  0  0  0  0  0  0
   -1.7959    0.7021    0.0000 C   0  0  0  0  0  0  0  0  0  0  0  0
   -0.2990    0.6051    0.0000 C   0  0  0  0  0  0  0  0  0  0  0  0
    0.5333    1.8530    0.0000 C   0  0  0  0  0  0  0  0  0  0  0  0
    2.0302    1.7561    0.0000 N   0  0  0  0  0  0  0  0  0  0  0  0
    2.8625    3.0040    0.0000 R   0  0  0  0  0  0  0  0  0  0  0  0
    2.6947    0.4113    0.0000 C   0  0  0  0  0  0  0  0  0  0  0  0
    1.8623   -0.8365    0.0000 O   0  0  0  0  0  0  0  0  0  0  0  0
    4.1916    0.3144    0.0000 O   0  0  0  0  0  0  0  0  0  0  0  0
    4.8561   -1.0303    0.0000 C   0  0  0  0  0  0  0  0  0  0  0  0
    6.3529   -1.1273    0.0000 C   0  0  0  0  0  0  0  0  0  0  0  0
    7.0175   -2.4720    0.0000 R   0  0  0  0  0  0  0  0  0  0  0  0
    7.1853    0.1206    0.0000 C   0  0  0  0  0  0  0  0  0  0  0  0
   -4.7896    0.8959    0.0000 C   0  0  0  0  0  0  0  0  0  0  0  0
   -3.9573    2.1437    0.0000 R   0  0  0  0  0  0  0  0  0  0  0  0
   -6.2865    0.9928    0.0000 O   0  0  0  0  0  0  0  0  0  0  0  0
  1  2  1  0
  2  3  1  0
  2  4  1  0
  4  5  1  6
  5  6  1  0
  6  7  1  0
  7  8  1  0
  8  9  1  0
  9 10  1  0
  9 11  1  0
 11 12  2  0
 11 13  1  0
 13 14  1  0
 14 15  1  0
 15 16  1  0
 15 17  2  0
  4 18  1  0
 18 19  1  0
 18 20  2  0
M  ISO  5   1   1   3   3  10   4  16   5  19   2
V    1 *
V    3 *
V   10 *
V   16 *
V   19 *
M  END
>  <symbol>  (667) 
Lys_Alloc

>  <m_Rgroups>  (667) 
[H],[OH],[H],[H],[H],None

>  <m_abbr>  (667) 
Lys_Alloc

>  <m_name>  (667) 
N-epsilon-Alloc-L-lysine

>  <m_type>  (667) 
aa

>  <m_subtype>  (667) 
modified

>  <m_chem_types>  (667) 
1:backbone_n,2:backbone_c,3:backbone_n_mod

$$$$

     RDKit          2D

 19 18  0  0  0  0  0  0  0  0999 V2000
   -5.8387    1.1749    0.0000 R   0  0  0  0  0  0  0  0  0  0  0  0
   -4.9572   -0.0388    0.0000 N   0  0  0  0  0  0  0  0  0  0  0  0
   -5.5676   -1.4090    0.0000 R   0  0  0  0  0  0  0  0  0  0  0  0
   -3.4654    0.1177    0.0000 C   0  0  0  0  0  0  0  0  0  0  0  0
   -2.5840   -1.0960    0.0000 C   0  0  0  0  0  0  0  0  0  0  0  0
   -1.0921   -0.9395    0.0000 C   0  0  0  0  0  0  0  0  0  0  0  0
   -0.2107   -2.1532    0.0000 C   0  0  0  0  0  0  0  0  0  0  0  0
    1.2811   -1.9967    0.0000 N   0  0  0  0  0  0  0  0  0  0  0  0
    2.1625   -3.2104    0.0000 R   0  0  0  0  0  0  0  0  0  0  0  0
    1.8915   -0.6265    0.0000 C   0  0  0  0  0  0  0  0  0  0  0  0
    1.0100    0.5872    0.0000 O   0  0  0  0  0  0  0  0  0  0  0  0
    3.3833   -0.4700    0.0000 O   0  0  0  0  0  0  0  0  0  0  0  0
    3.9937    0.9002    0.0000 C   0  0  0  0  0  0  0  0  0  0  0  0
    5.4855    1.0567    0.0000 C   0  0  0  0  0  0  0  0  0  0  0  0
    6.0959    2.4269    0.0000 R   0  0  0  0  0  0  0  0  0  0  0  0
    6.3669   -0.1570    0.0000 C   0  0  0  0  0  0  0  0  0  0  0  0
   -2.8550    1.4879    0.0000 C   0  0  0  0  0  0  0  0  0  0  0  0
   -1.3632    1.6444    0.0000 R   0  0  0  0  0  0  0  0  0  0  0  0
   -3.7365    2.7016    0.0000 O   0  0  0  0  0  0  0  0  0  0  0  0
  1  2  1  0
  2  3  1  0
  2  4  1  0
  4  5  1  6
  5  6  1  0
  6  7  1  0
  7  8  1  0
  8  9  1  0
  8 10  1  0
 10 11  2  0
 10 12  1  0
 12 13  1  0
 13 14  1  0
 14 15  1  0
 14 16  2  0
  4 17  1  0
 17 18  1  0
 17 19  2  0
M  ISO  5   1   1   3   3   9   4  15   5  18   2
V    1 *
V    3 *
V    9 *
V   15 *
V   18 *
M  END
>  <symbol>  (668) 
Orn_Alloc

>  <m_Rgroups>  (668) 
[H],[OH],[H],[H],[H],None

>  <m_abbr>  (668) 
Orn_Alloc

>  <m_name>  (668) 
N-delta-Alloc-L-ornithine

>  <m_type>  (668) 
aa

>  <m_subtype>  (668) 
modified

>  <m_chem_types>  (668) 
1:backbone_n,2:backbone_c,3:backbone_n_mod

$$$$

     RDKit          2D

 18 17  0  0  0  0  0  0  0  0999 V2000
   -5.0237   -1.8425    0.0000 R   0  0  0  0  0  0  0  0  0  0  0  0
   -3.5345   -1.6626    0.0000 N   0  0  0  0  0  0  0  0  0  0  0  0
   -2.6342   -2.8624    0.0000 R   0  0  0  0  0  0  0  0  0  0  0  0
   -2.9456   -0.2830    0.0000 C   0  0  0  0  0  0  0  0  0  0  0  0
   -1.4565   -0.1032    0.0000 C   0  0  0  0  0  0  0  0  0  0  0  0
   -0.8676    1.2764    0.0000 C   0  0  0  0  0  0  0  0  0  0  0  0
    0.6216    1.4562    0.0000 N   0  0  0  0  0  0  0  0  0  0  0  0
    1.2104    2.8358    0.0000 R   0  0  0  0  0  0  0  0  0  0  0  0
    1.5219    0.2565    0.0000 C   0  0  0  0  0  0  0  0  0  0  0  0
    0.9331   -1.1231    0.0000 O   0  0  0  0  0  0  0  0  0  0  0  0
    3.0111    0.4363    0.0000 O   0  0  0  0  0  0  0  0  0  0  0  0
    3.9114   -0.7634    0.0000 C   0  0  0  0  0  0  0  0  0  0  0  0
    5.4006   -0.5836    0.0000 C   0  0  0  0  0  0  0  0  0  0  0  0
    6.3009   -1.7833    0.0000 R   0  0  0  0  0  0  0  0  0  0  0  0
    5.9894    0.7960    0.0000 C   0  0  0  0  0  0  0  0  0  0  0  0
   -3.8460    0.9167    0.0000 C   0  0  0  0  0  0  0  0  0  0  0  0
   -3.2571    2.2963    0.0000 R   0  0  0  0  0  0  0  0  0  0  0  0
   -5.3352    0.7369    0.0000 O   0  0  0  0  0  0  0  0  0  0  0  0
  1  2  1  0
  2  3  1  0
  2  4  1  0
  4  5  1  6
  5  6  1  0
  6  7  1  0
  7  8  1  0
  7  9  1  0
  9 10  2  0
  9 11  1  0
 11 12  1  0
 12 13  1  0
 13 14  1  0
 13 15  2  0
  4 16  1  0
 16 17  1  0
 16 18  2  0
M  ISO  5   1   1   3   3   8   4  14   5  17   2
V    1 *
V    3 *
V    8 *
V   14 *
V   17 *
M  END
>  <symbol>  (669) 
Dab_Alloc

>  <m_Rgroups>  (669) 
[H],[OH],[H],[H],[H],None

>  <m_abbr>  (669) 
Dab_Alloc

>  <m_name>  (669) 
N-gamma-Alloc-L-Dab

>  <m_type>  (669) 
aa

>  <m_subtype>  (669) 
modified

>  <m_chem_types>  (669) 
1:backbone_n,2:backbone_c,3:backbone_n_mod

$$$$

     RDKit          2D

 17 16  0  0  0  0  0  0  0  0999 V2000
   -4.0543   -2.0537    0.0000 R   0  0  0  0  0  0  0  0  0  0  0  0
   -2.7277   -1.3535    0.0000 N   0  0  0  0  0  0  0  0  0  0  0  0
   -1.4581   -2.1522    0.0000 R   0  0  0  0  0  0  0  0  0  0  0  0
   -2.6709    0.1455    0.0000 C   0  0  0  0  0  0  0  0  0  0  0  0
   -1.3444    0.8457    0.0000 C   0  0  0  0  0  0  0  0  0  0  0  0
   -0.0747    0.0470    0.0000 N   0  0  0  0  0  0  0  0  0  0  0  0
   -0.1315   -1.4519    0.0000 R   0  0  0  0  0  0  0  0  0  0  0  0
    1.2518    0.7472    0.0000 C   0  0  0  0  0  0  0  0  0  0  0  0
    1.3087    2.2461    0.0000 O   0  0  0  0  0  0  0  0  0  0  0  0
    2.5215   -0.0515    0.0000 O   0  0  0  0  0  0  0  0  0  0  0  0
    3.8481    0.6487    0.0000 C   0  0  0  0  0  0  0  0  0  0  0  0
    5.1177   -0.1500    0.0000 C   0  0  0  0  0  0  0  0  0  0  0  0
    6.4443    0.5503    0.0000 R   0  0  0  0  0  0  0  0  0  0  0  0
    5.0609   -1.6489    0.0000 C   0  0  0  0  0  0  0  0  0  0  0  0
   -3.9406    0.9442    0.0000 C   0  0  0  0  0  0  0  0  0  0  0  0
   -5.2671    0.2439    0.0000 R   0  0  0  0  0  0  0  0  0  0  0  0
   -3.8837    2.4431    0.0000 O   0  0  0  0  0  0  0  0  0  0  0  0
  1  2  1  0
  2  3  1  0
  2  4  1  0
  4  5  1  6
  5  6  1  0
  6  7  1  0
  6  8  1  0
  8  9  2  0
  8 10  1  0
 10 11  1  0
 11 12  1  0
 12 13  1  0
 12 14  2  0
  4 15  1  0
 15 16  1  0
 15 17  2  0
M  ISO  5   1   1   3   3   7   4  13   5  16   2
V    1 *
V    3 *
V    7 *
V   13 *
V   16 *
M  END
>  <symbol>  (670) 
Dap_Alloc

>  <m_Rgroups>  (670) 
[H],[OH],[H],[H],[H],None

>  <m_abbr>  (670) 
Dap_Alloc

>  <m_name>  (670) 
N-beta-Alloc-L-Dap

>  <m_type>  (670) 
aa

>  <m_subtype>  (670) 
modified

>  <m_chem_types>  (670) 
1:backbone_n,2:backbone_c,3:backbone_n_mod

$$$$

     RDKit          2D

 16 15  0  0  0  0  0  0  0  0999 V2000
   -5.2755   -0.1474    0.0000 R   0  0  0  0  0  0  0  0  0  0  0  0
   -3.9497   -0.8490    0.0000 N   0  0  0  0  0  0  0  0  0  0  0  0
   -3.8945   -2.3480    0.0000 R   0  0  0  0  0  0  0  0  0  0  0  0
   -2.6792   -0.0517    0.0000 C   0  0  0  0  0  0  0  0  0  0  0  0
   -1.3534   -0.7534    0.0000 C   0  0  0  0  0  0  0  0  0  0  0  0
   -0.0829    0.0439    0.0000 C   0  0  0  0  0  0  0  0  0  0  0  0
    1.2429   -0.6578    0.0000 C   0  0  0  0  0  0  0  0  0  0  0  0
    1.2981   -2.1568    0.0000 O   0  0  0  0  0  0  0  0  0  0  0  0
    2.5135    0.1395    0.0000 O   0  0  0  0  0  0  0  0  0  0  0  0
    3.8392   -0.5622    0.0000 C   0  0  0  0  0  0  0  0  0  0  0  0
    5.1098    0.2351    0.0000 C   0  0  0  0  0  0  0  0  0  0  0  0
    6.4355   -0.4666    0.0000 R   0  0  0  0  0  0  0  0  0  0  0  0
    5.0546    1.7340    0.0000 C   0  0  0  0  0  0  0  0  0  0  0  0
   -2.7344    1.4472    0.0000 C   0  0  0  0  0  0  0  0  0  0  0  0
   -1.4638    2.2445    0.0000 R   0  0  0  0  0  0  0  0  0  0  0  0
   -4.0601    2.1489    0.0000 O   0  0  0  0  0  0  0  0  0  0  0  0
  1  2  1  0
  2  3  1  0
  2  4  1  0
  4  5  1  6
  5  6  1  0
  6  7  1  0
  7  8  2  0
  7  9  1  0
  9 10  1  0
 10 11  1  0
 11 12  1  0
 11 13  2  0
  4 14  1  0
 14 15  1  0
 14 16  2  0
M  ISO  4   1   1   3   3  12   4  15   2
V    1 *
V    3 *
V   12 *
V   15 *
M  END
>  <symbol>  (671) 
Glu_OAll

>  <m_Rgroups>  (671) 
[H],[OH],[H],[H],None,None

>  <m_abbr>  (671) 
Glu_OAll

>  <m_name>  (671) 
L-Glu gamma-allyl ester

>  <m_type>  (671) 
aa

>  <m_subtype>  (671) 
modified

>  <m_chem_types>  (671) 
1:backbone_n,2:backbone_c,3:backbone_n_mod

$$$$

     RDKit          2D

 15 14  0  0  0  0  0  0  0  0999 V2000
   -4.6412   -0.5736    0.0000 R   0  0  0  0  0  0  0  0  0  0  0  0
   -3.2600   -1.1586    0.0000 N   0  0  0  0  0  0  0  0  0  0  0  0
   -3.0760   -2.6473    0.0000 R   0  0  0  0  0  0  0  0  0  0  0  0
   -2.0628   -0.2549    0.0000 C   0  0  0  0  0  0  0  0  0  0  0  0
   -0.6815   -0.8399    0.0000 C   0  0  0  0  0  0  0  0  0  0  0  0
    0.5157    0.0637    0.0000 C   0  0  0  0  0  0  0  0  0  0  0  0
    0.3317    1.5524    0.0000 O   0  0  0  0  0  0  0  0  0  0  0  0
    1.8969   -0.5213    0.0000 O   0  0  0  0  0  0  0  0  0  0  0  0
    3.0941    0.3824    0.0000 C   0  0  0  0  0  0  0  0  0  0  0  0
    4.4754   -0.2026    0.0000 C   0  0  0  0  0  0  0  0  0  0  0  0
    5.6726    0.7011    0.0000 R   0  0  0  0  0  0  0  0  0  0  0  0
    4.6594   -1.6913    0.0000 C   0  0  0  0  0  0  0  0  0  0  0  0
   -2.2468    1.2337    0.0000 C   0  0  0  0  0  0  0  0  0  0  0  0
   -1.0495    2.1374    0.0000 R   0  0  0  0  0  0  0  0  0  0  0  0
   -3.6280    1.8187    0.0000 O   0  0  0  0  0  0  0  0  0  0  0  0
  1  2  1  0
  2  3  1  0
  2  4  1  0
  4  5  1  6
  5  6  1  0
  6  7  2  0
  6  8  1  0
  8  9  1  0
  9 10  1  0
 10 11  1  0
 10 12  2  0
  4 13  1  0
 13 14  1  0
 13 15  2  0
M  ISO  4   1   1   3   3  11   4  14   2
V    1 *
V    3 *
V   11 *
V   14 *
M  END
>  <symbol>  (672) 
Asp_OAll

>  <m_Rgroups>  (672) 
[H],[OH],[H],[H],None,None

>  <m_abbr>  (672) 
Asp_OAll

>  <m_name>  (672) 
L-Asp beta-allyl ester

>  <m_type>  (672) 
aa

>  <m_subtype>  (672) 
modified

>  <m_chem_types>  (672) 
1:backbone_n,2:backbone_c,3:backbone_n_mod

$$$$

     RDKit          2D

 13 12  0  0  0  0  0  0  0  0999 V2000
   -4.0960   -0.1954    0.0000 R   0  0  0  0  0  0  0  0  0  0  0  0
   -2.7929   -0.9383    0.0000 N   0  0  0  0  0  0  0  0  0  0  0  0
   -2.7847   -2.4383    0.0000 R   0  0  0  0  0  0  0  0  0  0  0  0
   -1.4979   -0.1812    0.0000 C   0  0  0  0  0  0  0  0  0  0  0  0
   -0.1948   -0.9242    0.0000 C   0  0  0  0  0  0  0  0  0  0  0  0
    1.1001   -0.1671    0.0000 O   0  0  0  0  0  0  0  0  0  0  0  0
    2.4032   -0.9100    0.0000 C   0  0  0  0  0  0  0  0  0  0  0  0
    3.6982   -0.1529    0.0000 C   0  0  0  0  0  0  0  0  0  0  0  0
    5.0013   -0.8959    0.0000 R   0  0  0  0  0  0  0  0  0  0  0  0
    3.6900    1.3470    0.0000 C   0  0  0  0  0  0  0  0  0  0  0  0
   -1.5061    1.3187    0.0000 C   0  0  0  0  0  0  0  0  0  0  0  0
   -0.2112    2.0758    0.0000 R   0  0  0  0  0  0  0  0  0  0  0  0
   -2.8092    2.0617    0.0000 O   0  0  0  0  0  0  0  0  0  0  0  0
  1  2  1  0
  2  3  1  0
  2  4  1  0
  4  5  1  6
  5  6  1  0
  6  7  1  0
  7  8  1  0
  8  9  1  0
  8 10  2  0
  4 11  1  0
 11 12  1  0
 11 13  2  0
M  ISO  4   1   1   3   3   9   4  12   2
V    1 *
V    3 *
V    9 *
V   12 *
M  END
>  <symbol>  (673) 
Ser_All

>  <m_Rgroups>  (673) 
[H],[OH],[H],[H],None,None

>  <m_abbr>  (673) 
Ser_All

>  <m_name>  (673) 
L-O-allylserine

>  <m_type>  (673) 
aa

>  <m_subtype>  (673) 
modified

>  <m_chem_types>  (673) 
1:backbone_n,2:backbone_c,3:backbone_n_mod

$$$$

     RDKit          2D

 14 13  0  0  0  0  0  0  0  0999 V2000
   -2.7837   -2.2500    0.0000 R   0  0  0  0  0  0  0  0  0  0  0  0
   -1.4846   -1.5000    0.0000 N   0  0  0  0  0  0  0  0  0  0  0  0
   -0.1856   -2.2500    0.0000 R   0  0  0  0  0  0  0  0  0  0  0  0
   -1.4846   -0.0000    0.0000 C   0  0  0  0  0  0  0  0  0  0  0  0
   -2.7837    0.7500    0.0000 C   0  0  0  0  0  0  0  0  0  0  0  0
   -2.7837    2.2500    0.0000 R   0  0  0  0  0  0  0  0  0  0  0  0
   -4.0827   -0.0000    0.0000 O   0  0  0  0  0  0  0  0  0  0  0  0
   -0.1856    0.7500    0.0000 C   0  0  0  0  0  0  0  0  0  0  0  0
   -0.1856    2.2500    0.0000 C   0  0  0  0  0  0  0  0  0  0  0  0
    1.1135    0.0000    0.0000 O   0  0  0  0  0  0  0  0  0  0  0  0
    2.4125    0.7500    0.0000 C   0  0  0  0  0  0  0  0  0  0  0  0
    3.7115    0.0000    0.0000 C   0  0  0  0  0  0  0  0  0  0  0  0
    5.0106    0.7500    0.0000 R   0  0  0  0  0  0  0  0  0  0  0  0
    3.7115   -1.5000    0.0000 C   0  0  0  0  0  0  0  0  0  0  0  0
  1  2  1  0
  2  3  1  0
  4  2  1  6
  4  5  1  0
  5  6  1  0
  5  7  2  0
  4  8  1  0
  8  9  1  1
  8 10  1  0
 10 11  1  0
 11 12  1  0
 12 13  1  0
 12 14  2  0
M  ISO  4   1   1   3   3   6   2  13   4
V    1 *
V    3 *
V    6 *
V   13 *
M  END
>  <symbol>  (674) 
Thr_All

>  <m_Rgroups>  (674) 
[H],[OH],[H],[H],None,None

>  <m_abbr>  (674) 
Thr_All

>  <m_name>  (674) 
L-O-allylthreonine

>  <m_type>  (674) 
aa

>  <m_subtype>  (674) 
modified

>  <m_chem_types>  (674) 
1:backbone_n,2:backbone_c,3:backbone_n_mod

$$$$

     RDKit          2D

 19 19  0  0  0  0  0  0  0  0999 V2000
   -4.1838    2.2752    0.0000 R   0  0  0  0  0  0  0  0  0  0  0  0
   -3.0808    1.2587    0.0000 N   0  0  0  0  0  0  0  0  0  0  0  0
   -1.6489    1.7056    0.0000 R   0  0  0  0  0  0  0  0  0  0  0  0
   -3.4096   -0.2049    0.0000 C   0  0  0  0  0  0  0  0  0  0  0  0
   -2.3066   -1.2214    0.0000 C   0  0  0  0  0  0  0  0  0  0  0  0
   -0.8748   -0.7744    0.0000 C   0  0  0  0  0  0  0  0  0  0  0  0
   -0.5459    0.6891    0.0000 C   0  0  0  0  0  0  0  0  0  0  0  0
    0.8859    1.1360    0.0000 C   0  0  0  0  0  0  0  0  0  0  0  0
    1.9890    0.1195    0.0000 C   0  0  0  0  0  0  0  0  0  0  0  0
    3.4208    0.5665    0.0000 O   0  0  0  0  0  0  0  0  0  0  0  0
    4.5238   -0.4501    0.0000 C   0  0  0  0  0  0  0  0  0  0  0  0
    5.9557   -0.0031    0.0000 C   0  0  0  0  0  0  0  0  0  0  0  0
    7.0587   -1.0197    0.0000 R   0  0  0  0  0  0  0  0  0  0  0  0
    6.2845    1.4604    0.0000 C   0  0  0  0  0  0  0  0  0  0  0  0
    1.6601   -1.3440    0.0000 C   0  0  0  0  0  0  0  0  0  0  0  0
    0.2282   -1.7910    0.0000 C   0  0  0  0  0  0  0  0  0  0  0  0
   -4.8415   -0.6518    0.0000 C   0  0  0  0  0  0  0  0  0  0  0  0
   -5.9445    0.3647    0.0000 R   0  0  0  0  0  0  0  0  0  0  0  0
   -5.1703   -2.1153    0.0000 O   0  0  0  0  0  0  0  0  0  0  0  0
  1  2  1  0
  2  3  1  0
  2  4  1  0
  4  5  1  1
  5  6  1  0
  6  7  1  0
  7  8  2  0
  8  9  1  0
  9 10  1  0
 10 11  1  0
 11 12  1  0
 12 13  1  0
 12 14  2  0
  9 15  2  0
 15 16  1  0
  4 17  1  0
 17 18  1  0
 17 19  2  0
 16  6  2  0
M  ISO  4   1   1   3   3  13   4  18   2
V    1 *
V    3 *
V   13 *
V   18 *
M  END
>  <symbol>  (675) 
Tyr_All

>  <m_Rgroups>  (675) 
[H],[OH],[H],[H],None,None

>  <m_abbr>  (675) 
Tyr_All

>  <m_name>  (675) 
L-O-allyltyrosine

>  <m_type>  (675) 
aa

>  <m_subtype>  (675) 
modified

>  <m_chem_types>  (675) 
1:backbone_n,2:backbone_c,3:backbone_n_mod

$$$$

     RDKit          2D

 13 12  0  0  0  0  0  0  0  0999 V2000
   -2.7847    2.4383    0.0000 R   0  0  0  0  0  0  0  0  0  0  0  0
   -2.7929    0.9383    0.0000 N   0  0  0  0  0  0  0  0  0  0  0  0
   -4.0960    0.1954    0.0000 R   0  0  0  0  0  0  0  0  0  0  0  0
   -1.4979    0.1812    0.0000 C   0  0  0  0  0  0  0  0  0  0  0  0
   -0.1948    0.9242    0.0000 C   0  0  0  0  0  0  0  0  0  0  0  0
    1.1001    0.1671    0.0000 S   0  0  0  0  0  0  0  0  0  0  0  0
    2.4032    0.9100    0.0000 C   0  0  0  0  0  0  0  0  0  0  0  0
    3.6982    0.1529    0.0000 C   0  0  0  0  0  0  0  0  0  0  0  0
    5.0013    0.8959    0.0000 R   0  0  0  0  0  0  0  0  0  0  0  0
    3.6900   -1.3470    0.0000 C   0  0  0  0  0  0  0  0  0  0  0  0
   -1.5061   -1.3187    0.0000 C   0  0  0  0  0  0  0  0  0  0  0  0
   -0.2112   -2.0758    0.0000 R   0  0  0  0  0  0  0  0  0  0  0  0
   -2.8092   -2.0617    0.0000 O   0  0  0  0  0  0  0  0  0  0  0  0
  1  2  1  0
  2  3  1  0
  2  4  1  0
  4  5  1  1
  5  6  1  0
  6  7  1  0
  7  8  1  0
  8  9  1  0
  8 10  2  0
  4 11  1  0
 11 12  1  0
 11 13  2  0
M  ISO  4   1   1   3   3   9   4  12   2
V    1 *
V    3 *
V    9 *
V   12 *
M  END
>  <symbol>  (676) 
Cys_All

>  <m_Rgroups>  (676) 
[H],[OH],[H],[H],None,None

>  <m_abbr>  (676) 
Cys_All

>  <m_name>  (676) 
L-S-allylcysteine

>  <m_type>  (676) 
aa

>  <m_subtype>  (676) 
modified

>  <m_chem_types>  (676) 
1:backbone_n,2:backbone_c,3:backbone_n_mod

$$$$

     RDKit          2D

 32 34  0  0  0  0  0  0  0  0999 V2000
    1.5846   -4.7420    0.0000 R   0  0  0  0  0  0  0  0  0  0  0  0
    1.5878   -3.7416    0.0000 N   0  0  0  0  0  0  0  0  0  0  0  0
    0.7234   -3.2392    0.0000 R   0  0  0  0  0  0  0  0  0  0  0  0
    2.4564   -3.2434    0.0000 C   0  0  0  0  0  0  0  0  0  0  0  0
    2.4584   -2.2390    0.0000 C   0  0  0  0  0  0  0  0  0  0  0  0
    1.5880   -1.7396    0.0000 C   0  0  0  0  0  0  0  0  0  0  0  0
    1.5728   -0.7338    0.0000 C   0  0  0  0  0  0  0  0  0  0  0  0
    0.6878   -0.2476    0.0000 C   0  0  0  0  0  0  0  0  0  0  0  0
    0.6584    0.7580    0.0000 N   0  0  0  0  0  0  0  0  0  0  0  0
   -0.2294    1.2498    0.0000 C   0  0  0  0  0  0  0  0  0  0  0  0
   -1.7490    1.2838    0.0000 C   0  0  0  0  0  0  0  0  0  0  0  0
   -2.2426    2.1508    0.0000 C   0  0  0  0  0  0  0  0  0  0  0  0
   -3.2442    2.1532    0.0000 C   0  0  0  0  0  0  0  0  0  0  0  0
   -3.7470    1.2948    0.0000 C   0  0  0  0  0  0  0  0  0  0  0  0
   -3.2552    0.4266    0.0000 C   0  0  0  0  0  0  0  0  0  0  0  0
   -2.2564    0.4220    0.0000 C   0  0  0  0  0  0  0  0  0  0  0  0
   -0.5994    0.3800    0.0000 C   0  0  0  0  0  0  0  0  0  0  0  0
   -1.5918    0.3796    0.0000 C   0  0  0  0  0  0  0  0  0  0  0  0
   -2.0930   -0.4850    0.0000 C   0  0  0  0  0  0  0  0  0  0  0  0
   -1.5964   -1.3508    0.0000 C   0  0  0  0  0  0  0  0  0  0  0  0
   -0.5984   -1.3492    0.0000 C   0  0  0  0  0  0  0  0  0  0  0  0
   -0.1012   -0.4886    0.0000 C   0  0  0  0  0  0  0  0  0  0  0  0
   -0.1276    2.2642    0.0000 C   0  0  0  0  0  0  0  0  0  0  0  0
    0.7454    2.7616    0.0000 C   0  0  0  0  0  0  0  0  0  0  0  0
    0.7470    3.7594    0.0000 C   0  0  0  0  0  0  0  0  0  0  0  0
   -0.1164    4.2642    0.0000 C   0  0  0  0  0  0  0  0  0  0  0  0
   -0.1128    5.2634    0.0000 C   0  0  0  0  0  0  0  0  0  0  0  0
   -0.9856    3.7680    0.0000 C   0  0  0  0  0  0  0  0  0  0  0  0
   -0.9888    2.7698    0.0000 C   0  0  0  0  0  0  0  0  0  0  0  0
    3.3206   -3.7478    0.0000 C   0  0  0  0  0  0  0  0  0  0  0  0
    3.3154   -4.7486    0.0000 R   0  0  0  0  0  0  0  0  0  0  0  0
    4.1888   -3.2528    0.0000 O   0  0  0  0  0  0  0  0  0  0  0  0
  1  2  1  0
  2  3  1  0
  2  4  1  0
  4  5  1  1
  5  6  1  0
  6  7  1  0
  7  8  1  0
  8  9  1  0
  9 10  1  0
 10 11  1  0
 11 12  2  0
 12 13  1  0
 13 14  2  0
 14 15  1  0
 15 16  2  0
 10 17  1  0
 17 18  2  0
 18 19  1  0
 19 20  2  0
 20 21  1  0
 21 22  2  0
 10 23  1  0
 23 24  1  0
 24 25  2  0
 25 26  1  0
 26 27  1  0
 26 28  2  0
 28 29  1  0
  4 30  1  0
 30 31  1  0
 30 32  2  0
 16 11  1  0
 22 17  1  0
 29 23  2  0
M  ISO  3   1   1   3   3  31   2
V    1 *
V    3 *
V   31 *
M  END
>  <symbol>  (677) 
Lys_Mtt

>  <m_Rgroups>  (677) 
[H],[OH],[H],None,None,None

>  <m_abbr>  (677) 
Lys_Mtt

>  <m_name>  (677) 
N-epsilon-Mtt-L-lysine

>  <m_type>  (677) 
aa

>  <m_subtype>  (677) 
modified

>  <m_chem_types>  (677) 
1:backbone_n,2:backbone_c,3:backbone_n_mod

$$$$

     RDKit          2D

  8  7  0  0  0  0  0  0  0  0999 V2000
   -1.7322    0.3736    0.0000 R   0  0  0  0  0  0  0  0  0  0  0  0
   -0.8660   -0.1256    0.0000 N   0  0  0  0  0  0  0  0  0  0  0  0
   -0.8652   -1.1256    0.0000 R   0  0  0  0  0  0  0  0  0  0  0  0
   -0.0002    0.3750    0.0000 C   0  0  0  0  0  0  0  0  0  0  0  0
   -0.0010    1.3750    0.0000 C   0  0  0  0  0  0  0  0  0  0  0  0
    0.8660   -0.1244    0.0000 C   0  0  0  0  0  0  0  0  0  0  0  0
    1.7318    0.3764    0.0000 R   0  0  0  0  0  0  0  0  0  0  0  0
    0.8668   -1.1244    0.0000 O   0  0  0  0  0  0  0  0  0  0  0  0
  1  2  1  0
  2  3  1  0
  2  4  1  0
  4  5  2  0
  4  6  1  0
  6  7  1  0
  6  8  2  0
M  ISO  3   1   1   3   3   7   2
V    1 *
V    3 *
V    7 *
M  END
>  <symbol>  (678) 
Dha

>  <m_Rgroups>  (678) 
[H],[OH],[H],None,None,None

>  <m_abbr>  (678) 
Dha

>  <m_name>  (678) 
Dehydroalanine (alpha,beta-didehydroalanine)

>  <m_type>  (678) 
aa

>  <m_subtype>  (678) 
modified

>  <m_chem_types>  (678) 
1:backbone_n,2:backbone_c,3:backbone_n_mod

$$$$

     RDKit          2D

  9  8  0  0  0  0  0  0  0  0999 V2000
   -1.8284   -0.1651    0.0000 R   0  0  0  0  0  0  0  0  0  0  0  0
   -0.9620    0.3341    0.0000 N   0  0  0  0  0  0  0  0  0  0  0  0
   -0.9612    1.3341    0.0000 R   0  0  0  0  0  0  0  0  0  0  0  0
   -0.0964   -0.1665    0.0000 C   0  0  0  0  0  0  0  0  0  0  0  0
   -0.0972   -1.1665    0.0000 C   0  0  0  0  0  0  0  0  0  0  0  0
    0.7684   -1.6673    0.0000 C   0  0  0  0  0  0  0  0  0  0  0  0
    0.7700    0.3327    0.0000 C   0  0  0  0  0  0  0  0  0  0  0  0
    1.6356   -0.1679    0.0000 R   0  0  0  0  0  0  0  0  0  0  0  0
    0.7708    1.3327    0.0000 O   0  0  0  0  0  0  0  0  0  0  0  0
  1  2  1  0
  2  3  1  0
  2  4  1  0
  4  5  2  3
  5  6  1  0
  4  7  1  0
  7  8  1  0
  7  9  2  0
M  ISO  3   1   1   3   3   8   2
V    1 *
V    3 *
V    8 *
M  END
>  <symbol>  (679) 
DeltaAbu

>  <m_Rgroups>  (679) 
[H],[OH],[H],None,None,None

>  <m_abbr>  (679) 
DeltaAbu

>  <m_name>  (679) 
alpha,beta-Didehydroaminobutyric acid

>  <m_type>  (679) 
aa

>  <m_subtype>  (679) 
modified

>  <m_chem_types>  (679) 
1:backbone_n,2:backbone_c,3:backbone_n_mod

$$$$

     RDKit          2D

 14 14  0  0  0  0  0  0  0  0999 V2000
   -1.6040    2.1460    0.0000 R   0  0  0  0  0  0  0  0  0  0  0  0
   -1.6060    1.1460    0.0000 N   0  0  0  0  0  0  0  0  0  0  0  0
   -2.4730    0.6478    0.0000 R   0  0  0  0  0  0  0  0  0  0  0  0
   -0.7410    0.6442    0.0000 C   0  0  0  0  0  0  0  0  0  0  0  0
   -0.7430   -0.3558    0.0000 C   0  0  0  0  0  0  0  0  0  0  0  0
    0.1220   -0.8574    0.0000 C   0  0  0  0  0  0  0  0  0  0  0  0
    0.9890   -0.3590    0.0000 C   0  0  0  0  0  0  0  0  0  0  0  0
    1.8540   -0.8610    0.0000 C   0  0  0  0  0  0  0  0  0  0  0  0
    1.8520   -1.8608    0.0000 C   0  0  0  0  0  0  0  0  0  0  0  0
    0.9850   -2.3592    0.0000 C   0  0  0  0  0  0  0  0  0  0  0  0
    0.1200   -1.8574    0.0000 C   0  0  0  0  0  0  0  0  0  0  0  0
    0.1260    1.1426    0.0000 C   0  0  0  0  0  0  0  0  0  0  0  0
    0.9910    0.6408    0.0000 R   0  0  0  0  0  0  0  0  0  0  0  0
    0.1280    2.1426    0.0000 O   0  0  0  0  0  0  0  0  0  0  0  0
  1  2  1  0
  2  3  1  0
  2  4  1  0
  4  5  2  3
  5  6  1  0
  6  7  2  0
  7  8  1  0
  8  9  2  0
  9 10  1  0
 10 11  2  0
  4 12  1  0
 12 13  1  0
 12 14  2  0
 11  6  1  0
M  ISO  3   1   1   3   3  13   2
V    1 *
V    3 *
V   13 *
M  END
>  <symbol>  (680) 
DeltaPhe

>  <m_Rgroups>  (680) 
[H],[OH],[H],None,None,None

>  <m_abbr>  (680) 
DeltaPhe

>  <m_name>  (680) 
alpha,beta-Didehydrophenylalanine

>  <m_type>  (680) 
aa

>  <m_subtype>  (680) 
modified

>  <m_chem_types>  (680) 
1:backbone_n,2:backbone_c,3:backbone_n_mod

$$$$

     RDKit          2D

 16 16  0  0  0  0  0  0  0  0999 V2000
   -1.7312    1.0014    0.0000 R   0  0  0  0  0  0  0  0  0  0  0  0
   -0.8656    0.5006    0.0000 N   0  0  0  0  0  0  0  0  0  0  0  0
    0.0008    1.0000    0.0000 R   0  0  0  0  0  0  0  0  0  0  0  0
   -0.8664   -0.4994    0.0000 C   0  0  0  0  0  0  0  0  0  0  0  0
   -0.0008   -1.0000    0.0000 C   0  0  0  0  0  0  0  0  0  0  0  0
    0.8656   -0.5008    0.0000 C   0  0  0  0  0  0  0  0  0  0  0  0
    0.8664    0.4994    0.0000 C   0  0  0  0  0  0  0  0  0  0  0  0
    1.7328    0.9986    0.0000 C   0  0  0  0  0  0  0  0  0  0  0  0
    2.5984    0.4980    0.0000 C   0  0  0  0  0  0  0  0  0  0  0  0
    3.4648    0.9972    0.0000 F   0  0  0  0  0  0  0  0  0  0  0  0
    2.5976   -0.5022    0.0000 C   0  0  0  0  0  0  0  0  0  0  0  0
    1.7312   -1.0012    0.0000 C   0  0  0  0  0  0  0  0  0  0  0  0
   -1.7328   -0.9986    0.0000 C   0  0  0  0  0  0  0  0  0  0  0  0
   -2.5984   -0.4980    0.0000 C   0  0  0  0  0  0  0  0  0  0  0  0
   -3.4648   -0.9972    0.0000 R   0  0  0  0  0  0  0  0  0  0  0  0
   -2.5976    0.5020    0.0000 O   0  0  0  0  0  0  0  0  0  0  0  0
  1  2  1  0
  2  3  1  0
  2  4  1  0
  4  5  1  1
  5  6  1  0
  6  7  1  0
  7  8  2  0
  8  9  1  0
  9 10  1  0
  9 11  2  0
 11 12  1  0
  4 13  1  0
 13 14  1  0
 14 15  1  0
 14 16  2  0
 12  6  2  0
M  ISO  3   1   1   3   3  15   2
V    1 *
V    3 *
V   15 *
M  END
>  <symbol>  (681) 
b3hPhe_4F

>  <m_Rgroups>  (681) 
[H],[OH],[H],None,None,None

>  <m_abbr>  (681) 
b3hPhe_4F

>  <m_name>  (681) 
beta3-Homo-4-fluorophenylalanine (L)

>  <m_type>  (681) 
aa

>  <m_subtype>  (681) 
modified

>  <m_chem_types>  (681) 
1:backbone_n,2:backbone_c,3:backbone_n_mod

$$$$

     RDKit          2D

 16 16  0  0  0  0  0  0  0  0999 V2000
   -1.7312    1.0014    0.0000 R   0  0  0  0  0  0  0  0  0  0  0  0
   -0.8656    0.5006    0.0000 N   0  0  0  0  0  0  0  0  0  0  0  0
    0.0008    1.0000    0.0000 R   0  0  0  0  0  0  0  0  0  0  0  0
   -0.8664   -0.4994    0.0000 C   0  0  0  0  0  0  0  0  0  0  0  0
   -0.0008   -1.0000    0.0000 C   0  0  0  0  0  0  0  0  0  0  0  0
    0.8656   -0.5008    0.0000 C   0  0  0  0  0  0  0  0  0  0  0  0
    0.8664    0.4994    0.0000 C   0  0  0  0  0  0  0  0  0  0  0  0
    1.7328    0.9986    0.0000 C   0  0  0  0  0  0  0  0  0  0  0  0
    2.5984    0.4980    0.0000 C   0  0  0  0  0  0  0  0  0  0  0  0
    3.4648    0.9972    0.0000 Cl  0  0  0  0  0  0  0  0  0  0  0  0
    2.5976   -0.5022    0.0000 C   0  0  0  0  0  0  0  0  0  0  0  0
    1.7312   -1.0012    0.0000 C   0  0  0  0  0  0  0  0  0  0  0  0
   -1.7328   -0.9986    0.0000 C   0  0  0  0  0  0  0  0  0  0  0  0
   -2.5984   -0.4980    0.0000 C   0  0  0  0  0  0  0  0  0  0  0  0
   -3.4648   -0.9972    0.0000 R   0  0  0  0  0  0  0  0  0  0  0  0
   -2.5976    0.5020    0.0000 O   0  0  0  0  0  0  0  0  0  0  0  0
  1  2  1  0
  2  3  1  0
  2  4  1  0
  4  5  1  1
  5  6  1  0
  6  7  1  0
  7  8  2  0
  8  9  1  0
  9 10  1  0
  9 11  2  0
 11 12  1  0
  4 13  1  0
 13 14  1  0
 14 15  1  0
 14 16  2  0
 12  6  2  0
M  ISO  3   1   1   3   3  15   2
V    1 *
V    3 *
V   15 *
M  END
>  <symbol>  (682) 
b3hPhe_4Cl

>  <m_Rgroups>  (682) 
[H],[OH],[H],None,None,None

>  <m_abbr>  (682) 
b3hPhe_4Cl

>  <m_name>  (682) 
beta3-Homo-4-chlorophenylalanine (L)

>  <m_type>  (682) 
aa

>  <m_subtype>  (682) 
modified

>  <m_chem_types>  (682) 
1:backbone_n,2:backbone_c,3:backbone_n_mod

$$$$

     RDKit          2D

 17 17  0  0  0  0  0  0  0  0999 V2000
    1.9860    0.9721    0.0000 R   0  0  0  0  0  0  0  0  0  0  0  0
    1.1204    0.4715    0.0000 N   0  0  0  0  0  0  0  0  0  0  0  0
    0.2540    0.9707    0.0000 R   0  0  0  0  0  0  0  0  0  0  0  0
    1.1212   -0.5285    0.0000 C   0  0  0  0  0  0  0  0  0  0  0  0
    0.2556   -1.0293    0.0000 C   0  0  0  0  0  0  0  0  0  0  0  0
   -0.6108   -0.5299    0.0000 C   0  0  0  0  0  0  0  0  0  0  0  0
   -0.6116    0.4701    0.0000 C   0  0  0  0  0  0  0  0  0  0  0  0
   -1.4780    0.9693    0.0000 C   0  0  0  0  0  0  0  0  0  0  0  0
   -2.3438    0.4687    0.0000 C   0  0  0  0  0  0  0  0  0  0  0  0
   -3.2100    0.9681    0.0000 O   0  0  0  0  0  0  0  0  0  0  0  0
   -4.0756    0.4673    0.0000 C   0  0  0  0  0  0  0  0  0  0  0  0
   -2.3430   -0.5313    0.0000 C   0  0  0  0  0  0  0  0  0  0  0  0
   -1.4764   -1.0305    0.0000 C   0  0  0  0  0  0  0  0  0  0  0  0
    1.9876   -1.0279    0.0000 C   0  0  0  0  0  0  0  0  0  0  0  0
    2.8532   -0.5271    0.0000 C   0  0  0  0  0  0  0  0  0  0  0  0
    3.7196   -1.0265    0.0000 R   0  0  0  0  0  0  0  0  0  0  0  0
    2.8524    0.4729    0.0000 O   0  0  0  0  0  0  0  0  0  0  0  0
  1  2  1  0
  2  3  1  0
  2  4  1  0
  4  5  1  6
  5  6  1  0
  6  7  1  0
  7  8  2  0
  8  9  1  0
  9 10  1  0
 10 11  1  0
  9 12  2  0
 12 13  1  0
  4 14  1  0
 14 15  1  0
 15 16  1  0
 15 17  2  0
 13  6  2  0
M  ISO  3   1   1   3   3  16   2
V    1 *
V    3 *
V   16 *
M  END
>  <symbol>  (683) 
b3hPhe_4OMe

>  <m_Rgroups>  (683) 
[H],[OH],[H],None,None,None

>  <m_abbr>  (683) 
b3hPhe_4OMe

>  <m_name>  (683) 
beta3-Homo-4-methoxyphenylalanine (L)

>  <m_type>  (683) 
aa

>  <m_subtype>  (683) 
modified

>  <m_chem_types>  (683) 
1:backbone_n,2:backbone_c,3:backbone_n_mod

$$$$

     RDKit          2D

 16 16  0  0  0  0  0  0  0  0999 V2000
   -1.7312    1.0014    0.0000 R   0  0  0  0  0  0  0  0  0  0  0  0
   -0.8656    0.5006    0.0000 N   0  0  0  0  0  0  0  0  0  0  0  0
    0.0008    1.0000    0.0000 R   0  0  0  0  0  0  0  0  0  0  0  0
   -0.8664   -0.4994    0.0000 C   0  0  0  0  0  0  0  0  0  0  0  0
   -0.0008   -1.0000    0.0000 C   0  0  0  0  0  0  0  0  0  0  0  0
    0.8656   -0.5008    0.0000 C   0  0  0  0  0  0  0  0  0  0  0  0
    0.8664    0.4994    0.0000 C   0  0  0  0  0  0  0  0  0  0  0  0
    1.7328    0.9986    0.0000 C   0  0  0  0  0  0  0  0  0  0  0  0
    2.5984    0.4980    0.0000 C   0  0  0  0  0  0  0  0  0  0  0  0
    3.4648    0.9972    0.0000 Br  0  0  0  0  0  0  0  0  0  0  0  0
    2.5976   -0.5022    0.0000 C   0  0  0  0  0  0  0  0  0  0  0  0
    1.7312   -1.0012    0.0000 C   0  0  0  0  0  0  0  0  0  0  0  0
   -1.7328   -0.9986    0.0000 C   0  0  0  0  0  0  0  0  0  0  0  0
   -2.5984   -0.4980    0.0000 C   0  0  0  0  0  0  0  0  0  0  0  0
   -3.4648   -0.9972    0.0000 R   0  0  0  0  0  0  0  0  0  0  0  0
   -2.5976    0.5020    0.0000 O   0  0  0  0  0  0  0  0  0  0  0  0
  1  2  1  0
  2  3  1  0
  2  4  1  0
  4  5  1  1
  5  6  1  0
  6  7  1  0
  7  8  2  0
  8  9  1  0
  9 10  1  0
  9 11  2  0
 11 12  1  0
  4 13  1  0
 13 14  1  0
 14 15  1  0
 14 16  2  0
 12  6  2  0
M  ISO  3   1   1   3   3  15   2
V    1 *
V    3 *
V   15 *
M  END
>  <symbol>  (684) 
b3hPhe_4Br

>  <m_Rgroups>  (684) 
[H],[OH],[H],None,None,None

>  <m_abbr>  (684) 
b3hPhe_4Br

>  <m_name>  (684) 
beta3-Homo-4-bromophenylalanine (L)

>  <m_type>  (684) 
aa

>  <m_subtype>  (684) 
modified

>  <m_chem_types>  (684) 
1:backbone_n,2:backbone_c,3:backbone_n_mod

$$$$

     RDKit          2D

 16 16  0  0  0  0  0  0  0  0999 V2000
   -1.7312    1.0014    0.0000 R   0  0  0  0  0  0  0  0  0  0  0  0
   -0.8656    0.5006    0.0000 N   0  0  0  0  0  0  0  0  0  0  0  0
    0.0008    1.0000    0.0000 R   0  0  0  0  0  0  0  0  0  0  0  0
   -0.8664   -0.4994    0.0000 C   0  0  0  0  0  0  0  0  0  0  0  0
   -0.0008   -1.0000    0.0000 C   0  0  0  0  0  0  0  0  0  0  0  0
    0.8656   -0.5008    0.0000 C   0  0  0  0  0  0  0  0  0  0  0  0
    0.8664    0.4994    0.0000 C   0  0  0  0  0  0  0  0  0  0  0  0
    1.7328    0.9986    0.0000 C   0  0  0  0  0  0  0  0  0  0  0  0
    2.5984    0.4980    0.0000 C   0  0  0  0  0  0  0  0  0  0  0  0
    3.4648    0.9972    0.0000 F   0  0  0  0  0  0  0  0  0  0  0  0
    2.5976   -0.5022    0.0000 C   0  0  0  0  0  0  0  0  0  0  0  0
    1.7312   -1.0012    0.0000 C   0  0  0  0  0  0  0  0  0  0  0  0
   -1.7328   -0.9986    0.0000 C   0  0  0  0  0  0  0  0  0  0  0  0
   -2.5984   -0.4980    0.0000 C   0  0  0  0  0  0  0  0  0  0  0  0
   -3.4648   -0.9972    0.0000 R   0  0  0  0  0  0  0  0  0  0  0  0
   -2.5976    0.5020    0.0000 O   0  0  0  0  0  0  0  0  0  0  0  0
  1  2  1  0
  2  3  1  0
  2  4  1  0
  4  5  1  6
  5  6  1  0
  6  7  1  0
  7  8  2  0
  8  9  1  0
  9 10  1  0
  9 11  2  0
 11 12  1  0
  4 13  1  0
 13 14  1  0
 14 15  1  0
 14 16  2  0
 12  6  2  0
M  ISO  3   1   1   3   3  15   2
V    1 *
V    3 *
V   15 *
M  END
>  <symbol>  (685) 
D_b3hPhe_4F

>  <m_Rgroups>  (685) 
[H],[OH],[H],None,None,None

>  <m_abbr>  (685) 
D_b3hPhe_4F

>  <m_name>  (685) 
D-beta3-Homo-4-fluorophenylalanine

>  <m_type>  (685) 
aa

>  <m_subtype>  (685) 
modified

>  <m_chem_types>  (685) 
1:backbone_n,2:backbone_c,3:backbone_n_mod

$$$$

     RDKit          2D

 16 16  0  0  0  0  0  0  0  0999 V2000
   -1.7312    1.0014    0.0000 R   0  0  0  0  0  0  0  0  0  0  0  0
   -0.8656    0.5006    0.0000 N   0  0  0  0  0  0  0  0  0  0  0  0
    0.0008    1.0000    0.0000 R   0  0  0  0  0  0  0  0  0  0  0  0
   -0.8664   -0.4994    0.0000 C   0  0  0  0  0  0  0  0  0  0  0  0
   -0.0008   -1.0000    0.0000 C   0  0  0  0  0  0  0  0  0  0  0  0
    0.8656   -0.5008    0.0000 C   0  0  0  0  0  0  0  0  0  0  0  0
    0.8664    0.4994    0.0000 C   0  0  0  0  0  0  0  0  0  0  0  0
    1.7328    0.9986    0.0000 C   0  0  0  0  0  0  0  0  0  0  0  0
    2.5984    0.4980    0.0000 C   0  0  0  0  0  0  0  0  0  0  0  0
    3.4648    0.9972    0.0000 Cl  0  0  0  0  0  0  0  0  0  0  0  0
    2.5976   -0.5022    0.0000 C   0  0  0  0  0  0  0  0  0  0  0  0
    1.7312   -1.0012    0.0000 C   0  0  0  0  0  0  0  0  0  0  0  0
   -1.7328   -0.9986    0.0000 C   0  0  0  0  0  0  0  0  0  0  0  0
   -2.5984   -0.4980    0.0000 C   0  0  0  0  0  0  0  0  0  0  0  0
   -3.4648   -0.9972    0.0000 R   0  0  0  0  0  0  0  0  0  0  0  0
   -2.5976    0.5020    0.0000 O   0  0  0  0  0  0  0  0  0  0  0  0
  1  2  1  0
  2  3  1  0
  2  4  1  0
  4  5  1  6
  5  6  1  0
  6  7  1  0
  7  8  2  0
  8  9  1  0
  9 10  1  0
  9 11  2  0
 11 12  1  0
  4 13  1  0
 13 14  1  0
 14 15  1  0
 14 16  2  0
 12  6  2  0
M  ISO  3   1   1   3   3  15   2
V    1 *
V    3 *
V   15 *
M  END
>  <symbol>  (686) 
D_b3hPhe_4Cl

>  <m_Rgroups>  (686) 
[H],[OH],[H],None,None,None

>  <m_abbr>  (686) 
D_b3hPhe_4Cl

>  <m_name>  (686) 
D-beta3-Homo-4-chlorophenylalanine

>  <m_type>  (686) 
aa

>  <m_subtype>  (686) 
modified

>  <m_chem_types>  (686) 
1:backbone_n,2:backbone_c,3:backbone_n_mod

$$$$

     RDKit          2D

 17 17  0  0  0  0  0  0  0  0999 V2000
    1.9860    0.9721    0.0000 R   0  0  0  0  0  0  0  0  0  0  0  0
    1.1204    0.4715    0.0000 N   0  0  0  0  0  0  0  0  0  0  0  0
    0.2540    0.9707    0.0000 R   0  0  0  0  0  0  0  0  0  0  0  0
    1.1212   -0.5285    0.0000 C   0  0  0  0  0  0  0  0  0  0  0  0
    0.2556   -1.0293    0.0000 C   0  0  0  0  0  0  0  0  0  0  0  0
   -0.6108   -0.5299    0.0000 C   0  0  0  0  0  0  0  0  0  0  0  0
   -0.6116    0.4701    0.0000 C   0  0  0  0  0  0  0  0  0  0  0  0
   -1.4780    0.9693    0.0000 C   0  0  0  0  0  0  0  0  0  0  0  0
   -2.3438    0.4687    0.0000 C   0  0  0  0  0  0  0  0  0  0  0  0
   -3.2100    0.9681    0.0000 O   0  0  0  0  0  0  0  0  0  0  0  0
   -4.0756    0.4673    0.0000 C   0  0  0  0  0  0  0  0  0  0  0  0
   -2.3430   -0.5313    0.0000 C   0  0  0  0  0  0  0  0  0  0  0  0
   -1.4764   -1.0305    0.0000 C   0  0  0  0  0  0  0  0  0  0  0  0
    1.9876   -1.0279    0.0000 C   0  0  0  0  0  0  0  0  0  0  0  0
    2.8532   -0.5271    0.0000 C   0  0  0  0  0  0  0  0  0  0  0  0
    3.7196   -1.0265    0.0000 R   0  0  0  0  0  0  0  0  0  0  0  0
    2.8524    0.4729    0.0000 O   0  0  0  0  0  0  0  0  0  0  0  0
  1  2  1  0
  2  3  1  0
  2  4  1  0
  4  5  1  1
  5  6  1  0
  6  7  1  0
  7  8  2  0
  8  9  1  0
  9 10  1  0
 10 11  1  0
  9 12  2  0
 12 13  1  0
  4 14  1  0
 14 15  1  0
 15 16  1  0
 15 17  2  0
 13  6  2  0
M  ISO  3   1   1   3   3  16   2
V    1 *
V    3 *
V   16 *
M  END
>  <symbol>  (687) 
D_b3hPhe_4OMe

>  <m_Rgroups>  (687) 
[H],[OH],[H],None,None,None

>  <m_abbr>  (687) 
D_b3hPhe_4OMe

>  <m_name>  (687) 
D-beta3-Homo-4-methoxyphenylalanine

>  <m_type>  (687) 
aa

>  <m_subtype>  (687) 
modified

>  <m_chem_types>  (687) 
1:backbone_n,2:backbone_c,3:backbone_n_mod

$$$$

     RDKit          2D

  8  7  0  0  0  0  0  0  0  0999 V2000
    3.1182    0.9820    0.0000 R   0  0  0  0  0  0  0  0  0  0  0  0
    1.9843    0.0000    0.0000 C   0  0  0  0  0  0  0  0  0  0  0  0
    2.2678   -1.4730    0.0000 O   0  0  0  0  0  0  0  0  0  0  0  0
    0.5669    0.4910    0.0000 C   0  0  0  0  0  0  0  0  0  0  0  0
   -0.5669   -0.4910    0.0000 C   0  0  0  0  0  0  0  0  0  0  0  0
   -1.9843   -0.0000    0.0000 C   0  0  0  0  0  0  0  0  0  0  0  0
   -3.1182   -0.9820    0.0000 R   0  0  0  0  0  0  0  0  0  0  0  0
   -2.2678    1.4730    0.0000 O   0  0  0  0  0  0  0  0  0  0  0  0
  1  2  1  0
  2  3  2  0
  2  4  1  0
  4  5  1  0
  5  6  1  0
  6  7  1  0
  6  8  2  0
M  ISO  2   1   2   7   4
V    1 *
V    7 *
M  END
>  <symbol>  (688) 
Succ

>  <m_Rgroups>  (688) 
None, [OH], None, [OH]

>  <m_abbr>  (688) 
Succ

>  <m_name>  (688) 
Succinyl cap (C4 diacid)

>  <m_type>  (688) 
cap

>  <m_subtype>  (688) 
cap

>  <m_chem_types>  (688) 
2:backbone_c

$$$$

     RDKit          2D

  9  8  0  0  0  0  0  0  0  0999 V2000
   -3.8971   -0.7500    0.0000 R   0  0  0  0  0  0  0  0  0  0  0  0
   -2.5981    0.0000    0.0000 C   0  0  0  0  0  0  0  0  0  0  0  0
   -2.5981    1.5000    0.0000 O   0  0  0  0  0  0  0  0  0  0  0  0
   -1.2990   -0.7500    0.0000 C   0  0  0  0  0  0  0  0  0  0  0  0
    0.0000    0.0000    0.0000 C   0  0  0  0  0  0  0  0  0  0  0  0
    1.2990   -0.7500    0.0000 C   0  0  0  0  0  0  0  0  0  0  0  0
    2.5981   -0.0000    0.0000 C   0  0  0  0  0  0  0  0  0  0  0  0
    3.8971   -0.7500    0.0000 R   0  0  0  0  0  0  0  0  0  0  0  0
    2.5981    1.5000    0.0000 O   0  0  0  0  0  0  0  0  0  0  0  0
  1  2  1  0
  2  3  2  0
  2  4  1  0
  4  5  1  0
  5  6  1  0
  6  7  1  0
  7  8  1  0
  7  9  2  0
M  ISO  2   1   2   8   4
V    1 *
V    8 *
M  END
>  <symbol>  (689) 
Glt

>  <m_Rgroups>  (689) 
None, [OH], None, [OH]

>  <m_abbr>  (689) 
Glt

>  <m_name>  (689) 
Glutaryl cap (C5 diacid)

>  <m_type>  (689) 
cap

>  <m_subtype>  (689) 
cap

>  <m_chem_types>  (689) 
2:backbone_c

$$$$

     RDKit          2D

 10  9  0  0  0  0  0  0  0  0999 V2000
    4.4693    0.9153    0.0000 R   0  0  0  0  0  0  0  0  0  0  0  0
    3.2691    0.0155    0.0000 C   0  0  0  0  0  0  0  0  0  0  0  0
    3.4483   -1.4737    0.0000 O   0  0  0  0  0  0  0  0  0  0  0  0
    1.8898    0.6050    0.0000 C   0  0  0  0  0  0  0  0  0  0  0  0
    0.6897   -0.2947    0.0000 C   0  0  0  0  0  0  0  0  0  0  0  0
   -0.6897    0.2947    0.0000 C   0  0  0  0  0  0  0  0  0  0  0  0
   -1.8898   -0.6050    0.0000 C   0  0  0  0  0  0  0  0  0  0  0  0
   -3.2691   -0.0155    0.0000 C   0  0  0  0  0  0  0  0  0  0  0  0
   -4.4693   -0.9153    0.0000 R   0  0  0  0  0  0  0  0  0  0  0  0
   -3.4483    1.4737    0.0000 O   0  0  0  0  0  0  0  0  0  0  0  0
  1  2  1  0
  2  3  2  0
  2  4  1  0
  4  5  1  0
  5  6  1  0
  6  7  1  0
  7  8  1  0
  8  9  1  0
  8 10  2  0
M  ISO  2   1   2   9   4
V    1 *
V    9 *
M  END
>  <symbol>  (690) 
Adp

>  <m_Rgroups>  (690) 
None, [OH], None, [OH]

>  <m_abbr>  (690) 
Adp

>  <m_name>  (690) 
Adipoyl cap (C6 diacid)

>  <m_type>  (690) 
cap

>  <m_subtype>  (690) 
cap

>  <m_chem_types>  (690) 
2:backbone_c

$$$$

     RDKit          2D

 11 10  0  0  0  0  0  0  0  0999 V2000
   -5.1962   -0.6818    0.0000 R   0  0  0  0  0  0  0  0  0  0  0  0
   -3.8971    0.0682    0.0000 C   0  0  0  0  0  0  0  0  0  0  0  0
   -3.8971    1.5682    0.0000 O   0  0  0  0  0  0  0  0  0  0  0  0
   -2.5981   -0.6818    0.0000 C   0  0  0  0  0  0  0  0  0  0  0  0
   -1.2990    0.0682    0.0000 C   0  0  0  0  0  0  0  0  0  0  0  0
    0.0000   -0.6818    0.0000 C   0  0  0  0  0  0  0  0  0  0  0  0
    1.2990    0.0682    0.0000 C   0  0  0  0  0  0  0  0  0  0  0  0
    2.5981   -0.6818    0.0000 C   0  0  0  0  0  0  0  0  0  0  0  0
    3.8971    0.0682    0.0000 C   0  0  0  0  0  0  0  0  0  0  0  0
    5.1962   -0.6818    0.0000 R   0  0  0  0  0  0  0  0  0  0  0  0
    3.8971    1.5682    0.0000 O   0  0  0  0  0  0  0  0  0  0  0  0
  1  2  1  0
  2  3  2  0
  2  4  1  0
  4  5  1  0
  5  6  1  0
  6  7  1  0
  7  8  1  0
  8  9  1  0
  9 10  1  0
  9 11  2  0
M  ISO  2   1   2  10   4
V    1 *
V   10 *
M  END
>  <symbol>  (691) 
Pim

>  <m_Rgroups>  (691) 
None, [OH], None, [OH]

>  <m_abbr>  (691) 
Pim

>  <m_name>  (691) 
Pimeloyl cap (C7 diacid)

>  <m_type>  (691) 
cap

>  <m_subtype>  (691) 
cap

>  <m_chem_types>  (691) 
2:backbone_c

$$$$

     RDKit          2D

 12 11  0  0  0  0  0  0  0  0999 V2000
    5.7935    0.8647    0.0000 R   0  0  0  0  0  0  0  0  0  0  0  0
    4.5621    0.0083    0.0000 C   0  0  0  0  0  0  0  0  0  0  0  0
    4.6881   -1.4864    0.0000 O   0  0  0  0  0  0  0  0  0  0  0  0
    3.2046    0.6465    0.0000 C   0  0  0  0  0  0  0  0  0  0  0  0
    1.9732   -0.2100    0.0000 C   0  0  0  0  0  0  0  0  0  0  0  0
    0.6157    0.4282    0.0000 C   0  0  0  0  0  0  0  0  0  0  0  0
   -0.6157   -0.4282    0.0000 C   0  0  0  0  0  0  0  0  0  0  0  0
   -1.9732    0.2100    0.0000 C   0  0  0  0  0  0  0  0  0  0  0  0
   -3.2046   -0.6465    0.0000 C   0  0  0  0  0  0  0  0  0  0  0  0
   -4.5621   -0.0083    0.0000 C   0  0  0  0  0  0  0  0  0  0  0  0
   -5.7935   -0.8647    0.0000 R   0  0  0  0  0  0  0  0  0  0  0  0
   -4.6881    1.4864    0.0000 O   0  0  0  0  0  0  0  0  0  0  0  0
  1  2  1  0
  2  3  2  0
  2  4  1  0
  4  5  1  0
  5  6  1  0
  6  7  1  0
  7  8  1  0
  8  9  1  0
  9 10  1  0
 10 11  1  0
 10 12  2  0
M  ISO  2   1   2  11   4
V    1 *
V   11 *
M  END
>  <symbol>  (692) 
Sub

>  <m_Rgroups>  (692) 
None, [OH], None, [OH]

>  <m_abbr>  (692) 
Sub

>  <m_name>  (692) 
Suberoyl cap (C8 diacid)

>  <m_type>  (692) 
cap

>  <m_subtype>  (692) 
cap

>  <m_chem_types>  (692) 
2:backbone_c

$$$$

     RDKit          2D

 13 12  0  0  0  0  0  0  0  0999 V2000
   -6.4952   -0.6346    0.0000 R   0  0  0  0  0  0  0  0  0  0  0  0
   -5.1962    0.1154    0.0000 C   0  0  0  0  0  0  0  0  0  0  0  0
   -5.1962    1.6154    0.0000 O   0  0  0  0  0  0  0  0  0  0  0  0
   -3.8971   -0.6346    0.0000 C   0  0  0  0  0  0  0  0  0  0  0  0
   -2.5981    0.1154    0.0000 C   0  0  0  0  0  0  0  0  0  0  0  0
   -1.2990   -0.6346    0.0000 C   0  0  0  0  0  0  0  0  0  0  0  0
    0.0000    0.1154    0.0000 C   0  0  0  0  0  0  0  0  0  0  0  0
    1.2990   -0.6346    0.0000 C   0  0  0  0  0  0  0  0  0  0  0  0
    2.5981    0.1154    0.0000 C   0  0  0  0  0  0  0  0  0  0  0  0
    3.8971   -0.6346    0.0000 C   0  0  0  0  0  0  0  0  0  0  0  0
    5.1962    0.1154    0.0000 C   0  0  0  0  0  0  0  0  0  0  0  0
    6.4952   -0.6346    0.0000 R   0  0  0  0  0  0  0  0  0  0  0  0
    5.1962    1.6154    0.0000 O   0  0  0  0  0  0  0  0  0  0  0  0
  1  2  1  0
  2  3  2  0
  2  4  1  0
  4  5  1  0
  5  6  1  0
  6  7  1  0
  7  8  1  0
  8  9  1  0
  9 10  1  0
 10 11  1  0
 11 12  1  0
 11 13  2  0
M  ISO  2   1   2  12   4
V    1 *
V   12 *
M  END
>  <symbol>  (693) 
Azel

>  <m_Rgroups>  (693) 
None, [OH], None, [OH]

>  <m_abbr>  (693) 
Azel

>  <m_name>  (693) 
Azelaoyl cap (C9 diacid)

>  <m_type>  (693) 
cap

>  <m_subtype>  (693) 
cap

>  <m_chem_types>  (693) 
2:backbone_c

$$$$

     RDKit          2D

 14 13  0  0  0  0  0  0  0  0999 V2000
    7.1071    0.8226    0.0000 R   0  0  0  0  0  0  0  0  0  0  0  0
    5.8577   -0.0074    0.0000 C   0  0  0  0  0  0  0  0  0  0  0  0
    5.9518   -1.5044    0.0000 O   0  0  0  0  0  0  0  0  0  0  0  0
    4.5141    0.6596    0.0000 C   0  0  0  0  0  0  0  0  0  0  0  0
    3.2647   -0.1705    0.0000 C   0  0  0  0  0  0  0  0  0  0  0  0
    1.9212    0.4965    0.0000 C   0  0  0  0  0  0  0  0  0  0  0  0
    0.6718   -0.3335    0.0000 C   0  0  0  0  0  0  0  0  0  0  0  0
   -0.6718    0.3335    0.0000 C   0  0  0  0  0  0  0  0  0  0  0  0
   -1.9212   -0.4965    0.0000 C   0  0  0  0  0  0  0  0  0  0  0  0
   -3.2647    0.1705    0.0000 C   0  0  0  0  0  0  0  0  0  0  0  0
   -4.5141   -0.6596    0.0000 C   0  0  0  0  0  0  0  0  0  0  0  0
   -5.8577    0.0074    0.0000 C   0  0  0  0  0  0  0  0  0  0  0  0
   -7.1071   -0.8226    0.0000 R   0  0  0  0  0  0  0  0  0  0  0  0
   -5.9518    1.5044    0.0000 O   0  0  0  0  0  0  0  0  0  0  0  0
  1  2  1  0
  2  3  2  0
  2  4  1  0
  4  5  1  0
  5  6  1  0
  6  7  1  0
  7  8  1  0
  8  9  1  0
  9 10  1  0
 10 11  1  0
 11 12  1  0
 12 13  1  0
 12 14  2  0
M  ISO  2   1   2  13   4
V    1 *
V   13 *
M  END
>  <symbol>  (694) 
Seb

>  <m_Rgroups>  (694) 
None, [OH], None, [OH]

>  <m_abbr>  (694) 
Seb

>  <m_name>  (694) 
Sebacoyl cap (C10 diacid)

>  <m_type>  (694) 
cap

>  <m_subtype>  (694) 
cap

>  <m_chem_types>  (694) 
2:backbone_c

$$$$

     RDKit          2D

 16 15  0  0  0  0  0  0  0  0999 V2000
    8.4154    0.7870    0.0000 R   0  0  0  0  0  0  0  0  0  0  0  0
    7.1545   -0.0256    0.0000 C   0  0  0  0  0  0  0  0  0  0  0  0
    7.2278   -1.5238    0.0000 O   0  0  0  0  0  0  0  0  0  0  0  0
    5.8204    0.6601    0.0000 C   0  0  0  0  0  0  0  0  0  0  0  0
    4.5595   -0.1525    0.0000 C   0  0  0  0  0  0  0  0  0  0  0  0
    3.2254    0.5332    0.0000 C   0  0  0  0  0  0  0  0  0  0  0  0
    1.9645   -0.2794    0.0000 C   0  0  0  0  0  0  0  0  0  0  0  0
    0.6304    0.4063    0.0000 C   0  0  0  0  0  0  0  0  0  0  0  0
   -0.6304   -0.4063    0.0000 C   0  0  0  0  0  0  0  0  0  0  0  0
   -1.9645    0.2794    0.0000 C   0  0  0  0  0  0  0  0  0  0  0  0
   -3.2254   -0.5332    0.0000 C   0  0  0  0  0  0  0  0  0  0  0  0
   -4.5595    0.1525    0.0000 C   0  0  0  0  0  0  0  0  0  0  0  0
   -5.8204   -0.6601    0.0000 C   0  0  0  0  0  0  0  0  0  0  0  0
   -7.1545    0.0256    0.0000 C   0  0  0  0  0  0  0  0  0  0  0  0
   -8.4154   -0.7870    0.0000 R   0  0  0  0  0  0  0  0  0  0  0  0
   -7.2278    1.5238    0.0000 O   0  0  0  0  0  0  0  0  0  0  0  0
  1  2  1  0
  2  3  2  0
  2  4  1  0
  4  5  1  0
  5  6  1  0
  6  7  1  0
  7  8  1  0
  8  9  1  0
  9 10  1  0
 10 11  1  0
 11 12  1  0
 12 13  1  0
 13 14  1  0
 14 15  1  0
 14 16  2  0
M  ISO  2   1   2  15   4
V    1 *
V   15 *
M  END
>  <symbol>  (695) 
Dod_dAcid

>  <m_Rgroups>  (695) 
None, [OH], None, [OH]

>  <m_abbr>  (695) 
Dod_dAcid

>  <m_name>  (695) 
Dodecanedioyl cap (C12 diacid)

>  <m_type>  (695) 
cap

>  <m_subtype>  (695) 
cap

>  <m_chem_types>  (695) 
2:backbone_c

$$$$

     RDKit          2D

  5  4  0  0  0  0  0  0  0  0999 V2000
    1.2134   -0.4976    0.0000 R   0  0  0  0  0  0  0  0  0  0  0  0
    0.3464    0.0006    0.0000 C   0  0  0  0  0  0  0  0  0  0  0  0
    0.3444    1.0006    0.0000 O   0  0  0  0  0  0  0  0  0  0  0  0
   -0.5186   -0.5010    0.0000 C   0  0  0  0  0  0  0  0  0  0  0  0
   -1.3856   -0.0028    0.0000 R   0  0  0  0  0  0  0  0  0  0  0  0
  1  2  1  0
  2  3  2  0
  2  4  1  0
  4  5  1  0
M  ISO  2   1   2   5   4
V    1 *
V    5 *
M  END
>  <symbol>  (696) 
ClAc

>  <m_Rgroups>  (696) 
None,[OH],None,[Cl],None,None

>  <m_abbr>  (696) 
ClAc

>  <m_name>  (696) 
Chloroacetyl cap

>  <m_type>  (696) 
cap

>  <m_subtype>  (696) 
cap

>  <m_chem_types>  (696) 
2:backbone_c,4:alkyl_halide_c

$$$$

     RDKit          2D

  5  4  0  0  0  0  0  0  0  0999 V2000
    1.2134   -0.4976    0.0000 R   0  0  0  0  0  0  0  0  0  0  0  0
    0.3464    0.0006    0.0000 C   0  0  0  0  0  0  0  0  0  0  0  0
    0.3444    1.0006    0.0000 O   0  0  0  0  0  0  0  0  0  0  0  0
   -0.5186   -0.5010    0.0000 C   0  0  0  0  0  0  0  0  0  0  0  0
   -1.3856   -0.0028    0.0000 R   0  0  0  0  0  0  0  0  0  0  0  0
  1  2  1  0
  2  3  2  0
  2  4  1  0
  4  5  1  0
M  ISO  2   1   2   5   4
V    1 *
V    5 *
M  END
>  <symbol>  (697) 
BrAc

>  <m_Rgroups>  (697) 
None,[OH],None,[Br],None,None

>  <m_abbr>  (697) 
BrAc

>  <m_name>  (697) 
Bromoacetyl cap

>  <m_type>  (697) 
cap

>  <m_subtype>  (697) 
cap

>  <m_chem_types>  (697) 
2:backbone_c,4:alkyl_halide_c

$$$$

     RDKit          2D

  5  4  0  0  0  0  0  0  0  0999 V2000
    1.2134   -0.4976    0.0000 R   0  0  0  0  0  0  0  0  0  0  0  0
    0.3464    0.0006    0.0000 C   0  0  0  0  0  0  0  0  0  0  0  0
    0.3444    1.0006    0.0000 O   0  0  0  0  0  0  0  0  0  0  0  0
   -0.5186   -0.5010    0.0000 C   0  0  0  0  0  0  0  0  0  0  0  0
   -1.3856   -0.0028    0.0000 C   0  0  0  0  0  0  0  0  0  0  0  0
  1  2  1  0
  2  3  2  0
  2  4  1  0
  4  5  1  0
M  ISO  1   1   2
V    1 *
M  END
>  <symbol>  (698) 
PropCap

>  <m_Rgroups>  (698) 
None,[OH],None,None,None,None

>  <m_abbr>  (698) 
PropCap

>  <m_name>  (698) 
Propionyl cap

>  <m_type>  (698) 
cap

>  <m_subtype>  (698) 
cap

>  <m_chem_types>  (698) 
2:backbone_c

$$$$

     RDKit          2D

  6  5  0  0  0  0  0  0  0  0999 V2000
    1.5885   -0.4134    0.0000 R   0  0  0  0  0  0  0  0  0  0  0  0
    0.7215    0.0848    0.0000 C   0  0  0  0  0  0  0  0  0  0  0  0
    0.7195    1.0848    0.0000 O   0  0  0  0  0  0  0  0  0  0  0  0
   -0.1435   -0.4170    0.0000 C   0  0  0  0  0  0  0  0  0  0  0  0
   -1.0105    0.0814    0.0000 C   0  0  0  0  0  0  0  0  0  0  0  0
   -1.8755   -0.4204    0.0000 C   0  0  0  0  0  0  0  0  0  0  0  0
  1  2  1  0
  2  3  2  0
  2  4  1  0
  4  5  1  0
  5  6  1  0
M  ISO  1   1   2
V    1 *
M  END
>  <symbol>  (699) 
ButCap

>  <m_Rgroups>  (699) 
None,[OH],None,None,None,None

>  <m_abbr>  (699) 
ButCap

>  <m_name>  (699) 
Butyryl cap

>  <m_type>  (699) 
cap

>  <m_subtype>  (699) 
cap

>  <m_chem_types>  (699) 
2:backbone_c

$$$$

     RDKit          2D

  8  7  0  0  0  0  0  0  0  0999 V2000
    2.3824   -0.3702    0.0000 R   0  0  0  0  0  0  0  0  0  0  0  0
    1.5152    0.1280    0.0000 C   0  0  0  0  0  0  0  0  0  0  0  0
    1.5132    1.1280    0.0000 O   0  0  0  0  0  0  0  0  0  0  0  0
    0.6502   -0.3736    0.0000 C   0  0  0  0  0  0  0  0  0  0  0  0
   -0.2168    0.1246    0.0000 C   0  0  0  0  0  0  0  0  0  0  0  0
   -1.0818   -0.3772    0.0000 C   0  0  0  0  0  0  0  0  0  0  0  0
   -1.9488    0.1212    0.0000 C   0  0  0  0  0  0  0  0  0  0  0  0
   -2.8138   -0.3806    0.0000 C   0  0  0  0  0  0  0  0  0  0  0  0
  1  2  1  0
  2  3  2  0
  2  4  1  0
  4  5  1  0
  5  6  1  0
  6  7  1  0
  7  8  1  0
M  ISO  1   1   2
V    1 *
M  END
>  <symbol>  (700) 
HexCap

>  <m_Rgroups>  (700) 
None,[OH],None,None,None,None

>  <m_abbr>  (700) 
HexCap

>  <m_name>  (700) 
Hexanoyl cap

>  <m_type>  (700) 
cap

>  <m_subtype>  (700) 
cap

>  <m_chem_types>  (700) 
2:backbone_c

$$$$

     RDKit          2D

  7  6  0  0  0  0  0  0  0  0999 V2000
   -1.3612   -0.1070    0.0000 R   0  0  0  0  0  0  0  0  0  0  0  0
   -0.4942    0.3914    0.0000 C   0  0  0  0  0  0  0  0  0  0  0  0
   -0.4920    1.3912    0.0000 O   0  0  0  0  0  0  0  0  0  0  0  0
    0.3708   -0.1104    0.0000 C   0  0  0  0  0  0  0  0  0  0  0  0
   -0.1308   -0.9754    0.0000 F   0  0  0  0  0  0  0  0  0  0  0  0
    0.8692   -0.9774    0.0000 F   0  0  0  0  0  0  0  0  0  0  0  0
    1.2380    0.3878    0.0000 F   0  0  0  0  0  0  0  0  0  0  0  0
  1  2  1  0
  2  3  2  0
  2  4  1  0
  4  5  1  0
  4  6  1  0
  4  7  1  0
M  ISO  1   1   2
V    1 *
M  END
>  <symbol>  (701) 
CF3Ac

>  <m_Rgroups>  (701) 
None,[OH],None,None,None,None

>  <m_abbr>  (701) 
CF3Ac

>  <m_name>  (701) 
Trifluoroacetyl cap

>  <m_type>  (701) 
cap

>  <m_subtype>  (701) 
cap

>  <m_chem_types>  (701) 
2:backbone_c

$$$$

     RDKit          2D

 14 13  0  0  0  0  0  0  0  0999 V2000
    4.7632    0.2462    0.0000 R   0  0  0  0  0  0  0  0  0  0  0  0
    3.8968   -0.2532    0.0000 N   0  0  0  0  0  0  0  0  0  0  0  0
    3.8960   -1.2532    0.0000 R   0  0  0  0  0  0  0  0  0  0  0  0
    3.0312    0.2476    0.0000 C   0  0  0  0  0  0  0  0  0  0  0  0
    2.1648   -0.2518    0.0000 C   0  0  0  0  0  0  0  0  0  0  0  0
    1.2992    0.2490    0.0000 C   0  0  0  0  0  0  0  0  0  0  0  0
    0.4328   -0.2504    0.0000 C   0  0  0  0  0  0  0  0  0  0  0  0
   -0.4328    0.2504    0.0000 C   0  0  0  0  0  0  0  0  0  0  0  0
   -1.2992   -0.2490    0.0000 C   0  0  0  0  0  0  0  0  0  0  0  0
   -2.1648    0.2518    0.0000 C   0  0  0  0  0  0  0  0  0  0  0  0
   -3.0312   -0.2476    0.0000 C   0  0  0  0  0  0  0  0  0  0  0  0
   -3.8968    0.2532    0.0000 C   0  0  0  0  0  0  0  0  0  0  0  0
   -4.7632   -0.2462    0.0000 R   0  0  0  0  0  0  0  0  0  0  0  0
   -3.8960    1.2532    0.0000 O   0  0  0  0  0  0  0  0  0  0  0  0
  1  2  1  0
  2  3  1  0
  2  4  1  0
  4  5  1  0
  5  6  1  0
  6  7  1  0
  7  8  1  0
  8  9  1  0
  9 10  1  0
 10 11  1  0
 11 12  1  0
 12 13  1  0
 12 14  2  0
M  ISO  3   1   1   3   3  13   2
V    1 *
V    3 *
V   13 *
M  END
>  <symbol>  (702) 
9Anac

>  <m_Rgroups>  (702) 
[H],[OH],[H],None,None,None

>  <m_abbr>  (702) 
9Anac

>  <m_name>  (702) 
9-Aminononanoic acid linker

>  <m_type>  (702) 
linker

>  <m_subtype>  (702) 
linker

>  <m_chem_types>  (702) 
1:backbone_n,2:backbone_c,3:backbone_n_mod

$$$$

     RDKit          2D

 15 14  0  0  0  0  0  0  0  0999 V2000
   -5.1963   -0.3958    0.0000 R   0  0  0  0  0  0  0  0  0  0  0  0
   -4.3299    0.1034    0.0000 N   0  0  0  0  0  0  0  0  0  0  0  0
   -4.3291    1.1034    0.0000 R   0  0  0  0  0  0  0  0  0  0  0  0
   -3.4643   -0.3972    0.0000 C   0  0  0  0  0  0  0  0  0  0  0  0
   -2.5979    0.1020    0.0000 C   0  0  0  0  0  0  0  0  0  0  0  0
   -1.7323   -0.3986    0.0000 C   0  0  0  0  0  0  0  0  0  0  0  0
   -0.8659    0.1006    0.0000 C   0  0  0  0  0  0  0  0  0  0  0  0
   -0.0003   -0.4000    0.0000 C   0  0  0  0  0  0  0  0  0  0  0  0
    0.8661    0.0994    0.0000 C   0  0  0  0  0  0  0  0  0  0  0  0
    1.7317   -0.4014    0.0000 C   0  0  0  0  0  0  0  0  0  0  0  0
    2.5981    0.0980    0.0000 C   0  0  0  0  0  0  0  0  0  0  0  0
    3.4637   -0.4028    0.0000 C   0  0  0  0  0  0  0  0  0  0  0  0
    4.3301    0.0966    0.0000 C   0  0  0  0  0  0  0  0  0  0  0  0
    5.1957   -0.4042    0.0000 R   0  0  0  0  0  0  0  0  0  0  0  0
    4.3309    1.0966    0.0000 O   0  0  0  0  0  0  0  0  0  0  0  0
  1  2  1  0
  2  3  1  0
  2  4  1  0
  4  5  1  0
  5  6  1  0
  6  7  1  0
  7  8  1  0
  8  9  1  0
  9 10  1  0
 10 11  1  0
 11 12  1  0
 12 13  1  0
 13 14  1  0
 13 15  2  0
M  ISO  3   1   1   3   3  14   2
V    1 *
V    3 *
V   14 *
M  END
>  <symbol>  (703) 
10Adec

>  <m_Rgroups>  (703) 
[H],[OH],[H],None,None,None

>  <m_abbr>  (703) 
10Adec

>  <m_name>  (703) 
10-Aminodecanoic acid linker

>  <m_type>  (703) 
linker

>  <m_subtype>  (703) 
linker

>  <m_chem_types>  (703) 
1:backbone_n,2:backbone_c,3:backbone_n_mod

$$$$

     RDKit          2D

 17 16  0  0  0  0  0  0  0  0999 V2000
   -6.0623   -0.3776    0.0000 R   0  0  0  0  0  0  0  0  0  0  0  0
   -5.1959    0.1218    0.0000 N   0  0  0  0  0  0  0  0  0  0  0  0
   -5.1951    1.1218    0.0000 R   0  0  0  0  0  0  0  0  0  0  0  0
   -4.3303   -0.3790    0.0000 C   0  0  0  0  0  0  0  0  0  0  0  0
   -3.4639    0.1204    0.0000 C   0  0  0  0  0  0  0  0  0  0  0  0
   -2.5983   -0.3802    0.0000 C   0  0  0  0  0  0  0  0  0  0  0  0
   -1.7319    0.1190    0.0000 C   0  0  0  0  0  0  0  0  0  0  0  0
   -0.8663   -0.3816    0.0000 C   0  0  0  0  0  0  0  0  0  0  0  0
    0.0001    0.1176    0.0000 C   0  0  0  0  0  0  0  0  0  0  0  0
    0.8657   -0.3830    0.0000 C   0  0  0  0  0  0  0  0  0  0  0  0
    1.7321    0.1162    0.0000 C   0  0  0  0  0  0  0  0  0  0  0  0
    2.5977   -0.3844    0.0000 C   0  0  0  0  0  0  0  0  0  0  0  0
    3.4641    0.1148    0.0000 C   0  0  0  0  0  0  0  0  0  0  0  0
    4.3297   -0.3858    0.0000 C   0  0  0  0  0  0  0  0  0  0  0  0
    5.1961    0.1136    0.0000 C   0  0  0  0  0  0  0  0  0  0  0  0
    6.0617   -0.3872    0.0000 R   0  0  0  0  0  0  0  0  0  0  0  0
    5.1969    1.1136    0.0000 O   0  0  0  0  0  0  0  0  0  0  0  0
  1  2  1  0
  2  3  1  0
  2  4  1  0
  4  5  1  0
  5  6  1  0
  6  7  1  0
  7  8  1  0
  8  9  1  0
  9 10  1  0
 10 11  1  0
 11 12  1  0
 12 13  1  0
 13 14  1  0
 14 15  1  0
 15 16  1  0
 15 17  2  0
M  ISO  3   1   1   3   3  16   2
V    1 *
V    3 *
V   16 *
M  END
>  <symbol>  (704) 
12Adod

>  <m_Rgroups>  (704) 
[H],[OH],[H],None,None,None

>  <m_abbr>  (704) 
12Adod

>  <m_name>  (704) 
12-Aminododecanoic acid linker

>  <m_type>  (704) 
linker

>  <m_subtype>  (704) 
linker

>  <m_chem_types>  (704) 
1:backbone_n,2:backbone_c,3:backbone_n_mod

$$$$

     RDKit          2D

 28 27  0  0  0  0  0  0  0  0999 V2000
   10.8252    0.2414    0.0000 R   0  0  0  0  0  0  0  0  0  0  0  0
    9.9588   -0.2580    0.0000 N   0  0  0  0  0  0  0  0  0  0  0  0
    9.9580   -1.2580    0.0000 R   0  0  0  0  0  0  0  0  0  0  0  0
    9.0932    0.2428    0.0000 C   0  0  0  0  0  0  0  0  0  0  0  0
    8.2268   -0.2566    0.0000 C   0  0  0  0  0  0  0  0  0  0  0  0
    7.3612    0.2442    0.0000 O   0  0  0  0  0  0  0  0  0  0  0  0
    6.4948   -0.2552    0.0000 C   0  0  0  0  0  0  0  0  0  0  0  0
    5.6292    0.2456    0.0000 C   0  0  0  0  0  0  0  0  0  0  0  0
    4.7628   -0.2538    0.0000 O   0  0  0  0  0  0  0  0  0  0  0  0
    3.8972    0.2468    0.0000 C   0  0  0  0  0  0  0  0  0  0  0  0
    3.0308   -0.2524    0.0000 C   0  0  0  0  0  0  0  0  0  0  0  0
    2.1652    0.2482    0.0000 O   0  0  0  0  0  0  0  0  0  0  0  0
    1.2988   -0.2510    0.0000 C   0  0  0  0  0  0  0  0  0  0  0  0
    0.4332    0.2496    0.0000 C   0  0  0  0  0  0  0  0  0  0  0  0
   -0.4332   -0.2496    0.0000 O   0  0  0  0  0  0  0  0  0  0  0  0
   -1.2988    0.2510    0.0000 C   0  0  0  0  0  0  0  0  0  0  0  0
   -2.1652   -0.2482    0.0000 C   0  0  0  0  0  0  0  0  0  0  0  0
   -3.0308    0.2524    0.0000 O   0  0  0  0  0  0  0  0  0  0  0  0
   -3.8972   -0.2468    0.0000 C   0  0  0  0  0  0  0  0  0  0  0  0
   -4.7628    0.2538    0.0000 C   0  0  0  0  0  0  0  0  0  0  0  0
   -5.6292   -0.2456    0.0000 O   0  0  0  0  0  0  0  0  0  0  0  0
   -6.4948    0.2552    0.0000 C   0  0  0  0  0  0  0  0  0  0  0  0
   -7.3612   -0.2442    0.0000 C   0  0  0  0  0  0  0  0  0  0  0  0
   -8.2268    0.2566    0.0000 O   0  0  0  0  0  0  0  0  0  0  0  0
   -9.0932   -0.2428    0.0000 C   0  0  0  0  0  0  0  0  0  0  0  0
   -9.9588    0.2580    0.0000 C   0  0  0  0  0  0  0  0  0  0  0  0
  -10.8252   -0.2414    0.0000 R   0  0  0  0  0  0  0  0  0  0  0  0
   -9.9580    1.2580    0.0000 O   0  0  0  0  0  0  0  0  0  0  0  0
  1  2  1  0
  2  3  1  0
  2  4  1  0
  4  5  1  0
  5  6  1  0
  6  7  1  0
  7  8  1  0
  8  9  1  0
  9 10  1  0
 10 11  1  0
 11 12  1  0
 12 13  1  0
 13 14  1  0
 14 15  1  0
 15 16  1  0
 16 17  1  0
 17 18  1  0
 18 19  1  0
 19 20  1  0
 20 21  1  0
 21 22  1  0
 22 23  1  0
 23 24  1  0
 24 25  1  0
 25 26  1  0
 26 27  1  0
 26 28  2  0
M  ISO  3   1   1   3   3  27   2
V    1 *
V    3 *
V   27 *
M  END
>  <symbol>  (705) 
OEG7

>  <m_Rgroups>  (705) 
[H],[OH],[H],None,None,None

>  <m_abbr>  (705) 
OEG7

>  <m_name>  (705) 
7-unit PEG amino acid linker

>  <m_type>  (705) 
linker

>  <m_subtype>  (705) 
linker

>  <m_chem_types>  (705) 
1:backbone_n,2:backbone_c,3:backbone_n_mod

$$$$

     RDKit          2D

 19 20  0  0  0  0  0  0  0  0999 V2000
   -0.7796   -1.5358    0.0000 R   0  0  0  0  0  0  0  0  0  0  0  0
    0.0862   -2.0360    0.0000 N   0  0  0  0  0  0  0  0  0  0  0  0
    0.0858   -3.0358    0.0000 C   0  0  0  0  0  0  0  0  0  0  0  0
    0.9524   -1.5364    0.0000 C   0  0  0  0  0  0  0  0  0  0  0  0
    0.9528   -0.5364    0.0000 C   0  0  0  0  0  0  0  0  0  0  0  0
    0.0872   -0.0360    0.0000 C   0  0  0  0  0  0  0  0  0  0  0  0
   -0.8266   -0.4420    0.0000 C   0  0  0  0  0  0  0  0  0  0  0  0
   -1.4954    0.3012    0.0000 N   0  0  0  0  0  0  0  0  0  0  0  0
   -2.4898    0.1974    0.0000 R   0  0  0  0  0  0  0  0  0  0  0  0
   -0.9948    1.1672    0.0000 C   0  0  0  0  0  0  0  0  0  0  0  0
   -1.3032    2.1184    0.0000 C   0  0  0  0  0  0  0  0  0  0  0  0
   -0.6338    2.8612    0.0000 C   0  0  0  0  0  0  0  0  0  0  0  0
   -0.9422    3.8122    0.0000 F   0  0  0  0  0  0  0  0  0  0  0  0
    0.3444    2.6526    0.0000 C   0  0  0  0  0  0  0  0  0  0  0  0
    0.6526    1.7014    0.0000 C   0  0  0  0  0  0  0  0  0  0  0  0
   -0.0168    0.9586    0.0000 C   0  0  0  0  0  0  0  0  0  0  0  0
    1.8180   -2.0368    0.0000 C   0  0  0  0  0  0  0  0  0  0  0  0
    1.8176   -3.0370    0.0000 R   0  0  0  0  0  0  0  0  0  0  0  0
    2.6844   -1.5372    0.0000 O   0  0  0  0  0  0  0  0  0  0  0  0
  1  2  1  0
  2  3  1  0
  2  4  1  0
  4  5  1  1
  5  6  1  0
  6  7  2  0
  7  8  1  0
  8  9  1  0
  8 10  1  0
 10 11  1  0
 11 12  2  0
 12 13  1  0
 12 14  1  0
 14 15  2  0
 15 16  1  0
  4 17  1  0
 17 18  1  0
 17 19  2  0
 16  6  1  0
 16 10  2  0
M  ISO  3   1   1   9   3  18   2
V    1 *
V    9 *
V   18 *
M  END
>  <symbol>  (706) 
meTrp_5F

>  <m_Rgroups>  (706) 
[H],[OH],[H],None,None,None

>  <m_abbr>  (706) 
meTrp_5F

>  <m_name>  (706) 
NMe-L-5-fluorotryptophan

>  <m_type>  (706) 
aa

>  <m_subtype>  (706) 
modified

>  <m_chem_types>  (706) 
1:backbone_n,2:backbone_c,3:aromatic_nh

$$$$

     RDKit          2D

 19 20  0  0  0  0  0  0  0  0999 V2000
   -0.7796   -1.5358    0.0000 R   0  0  0  0  0  0  0  0  0  0  0  0
    0.0862   -2.0360    0.0000 N   0  0  0  0  0  0  0  0  0  0  0  0
    0.0858   -3.0358    0.0000 C   0  0  0  0  0  0  0  0  0  0  0  0
    0.9524   -1.5364    0.0000 C   0  0  0  0  0  0  0  0  0  0  0  0
    0.9528   -0.5364    0.0000 C   0  0  0  0  0  0  0  0  0  0  0  0
    0.0872   -0.0360    0.0000 C   0  0  0  0  0  0  0  0  0  0  0  0
   -0.8266   -0.4420    0.0000 C   0  0  0  0  0  0  0  0  0  0  0  0
   -1.4954    0.3012    0.0000 N   0  0  0  0  0  0  0  0  0  0  0  0
   -2.4898    0.1974    0.0000 R   0  0  0  0  0  0  0  0  0  0  0  0
   -0.9948    1.1672    0.0000 C   0  0  0  0  0  0  0  0  0  0  0  0
   -1.3032    2.1184    0.0000 C   0  0  0  0  0  0  0  0  0  0  0  0
   -0.6338    2.8612    0.0000 C   0  0  0  0  0  0  0  0  0  0  0  0
   -0.9422    3.8122    0.0000 C   0  0  0  0  0  0  0  0  0  0  0  0
    0.3444    2.6526    0.0000 C   0  0  0  0  0  0  0  0  0  0  0  0
    0.6526    1.7014    0.0000 C   0  0  0  0  0  0  0  0  0  0  0  0
   -0.0168    0.9586    0.0000 C   0  0  0  0  0  0  0  0  0  0  0  0
    1.8180   -2.0368    0.0000 C   0  0  0  0  0  0  0  0  0  0  0  0
    1.8176   -3.0370    0.0000 R   0  0  0  0  0  0  0  0  0  0  0  0
    2.6844   -1.5372    0.0000 O   0  0  0  0  0  0  0  0  0  0  0  0
  1  2  1  0
  2  3  1  0
  2  4  1  0
  4  5  1  1
  5  6  1  0
  6  7  2  0
  7  8  1  0
  8  9  1  0
  8 10  1  0
 10 11  1  0
 11 12  2  0
 12 13  1  0
 12 14  1  0
 14 15  2  0
 15 16  1  0
  4 17  1  0
 17 18  1  0
 17 19  2  0
 16  6  1  0
 16 10  2  0
M  ISO  3   1   1   9   3  18   2
V    1 *
V    9 *
V   18 *
M  END
>  <symbol>  (707) 
meTrp_5Me

>  <m_Rgroups>  (707) 
[H],[OH],[H],None,None,None

>  <m_abbr>  (707) 
meTrp_5Me

>  <m_name>  (707) 
NMe-L-5-methyltryptophan

>  <m_type>  (707) 
aa

>  <m_subtype>  (707) 
modified

>  <m_chem_types>  (707) 
1:backbone_n,2:backbone_c,3:aromatic_nh

$$$$

     RDKit          2D

 18 19  0  0  0  0  0  0  0  0999 V2000
   -2.6300   -1.3297    0.0000 R   0  0  0  0  0  0  0  0  0  0  0  0
   -1.7628   -1.8279    0.0000 N   0  0  0  0  0  0  0  0  0  0  0  0
   -1.7608   -2.8281    0.0000 C   0  0  0  0  0  0  0  0  0  0  0  0
   -0.8980   -1.3261    0.0000 C   0  0  0  0  0  0  0  0  0  0  0  0
   -0.9000   -0.3261    0.0000 C   0  0  0  0  0  0  0  0  0  0  0  0
   -0.0352    0.1757    0.0000 C   0  0  0  0  0  0  0  0  0  0  0  0
    0.8792   -0.2289    0.0000 C   0  0  0  0  0  0  0  0  0  0  0  0
    1.5468    0.5155    0.0000 N   0  0  0  0  0  0  0  0  0  0  0  0
    2.5414    0.4133    0.0000 R   0  0  0  0  0  0  0  0  0  0  0  0
    1.0448    1.3805    0.0000 C   0  0  0  0  0  0  0  0  0  0  0  0
    1.3518    2.3321    0.0000 N   0  0  0  0  0  0  0  0  0  0  0  0
    0.6812    3.0739    0.0000 C   0  0  0  0  0  0  0  0  0  0  0  0
   -0.2966    2.8639    0.0000 C   0  0  0  0  0  0  0  0  0  0  0  0
   -0.6034    1.9121    0.0000 C   0  0  0  0  0  0  0  0  0  0  0  0
    0.0672    1.1705    0.0000 C   0  0  0  0  0  0  0  0  0  0  0  0
   -0.0310   -1.8243    0.0000 C   0  0  0  0  0  0  0  0  0  0  0  0
   -0.0290   -2.8243    0.0000 R   0  0  0  0  0  0  0  0  0  0  0  0
    0.8340   -1.3227    0.0000 O   0  0  0  0  0  0  0  0  0  0  0  0
  1  2  1  0
  2  3  1  0
  2  4  1  0
  4  5  1  1
  5  6  1  0
  6  7  2  0
  7  8  1  0
  8  9  1  0
  8 10  1  0
 10 11  2  0
 11 12  1  0
 12 13  2  0
 13 14  1  0
 14 15  2  0
  4 16  1  0
 16 17  1  0
 16 18  2  0
 15  6  1  0
 15 10  1  0
M  ISO  3   1   1   9   3  17   2
V    1 *
V    9 *
V   17 *
M  END
>  <symbol>  (708) 
meTrp_7Aza

>  <m_Rgroups>  (708) 
[H],[OH],[H],None,None,None

>  <m_abbr>  (708) 
meTrp_7Aza

>  <m_name>  (708) 
NMe-L-7-azatryptophan

>  <m_type>  (708) 
aa

>  <m_subtype>  (708) 
modified

>  <m_chem_types>  (708) 
1:backbone_n,2:backbone_c,3:aromatic_nh

$$$$

     RDKit          2D

 18 19  0  0  0  0  0  0  0  0999 V2000
   -2.6300   -1.3297    0.0000 R   0  0  0  0  0  0  0  0  0  0  0  0
   -1.7628   -1.8279    0.0000 N   0  0  0  0  0  0  0  0  0  0  0  0
   -1.7608   -2.8281    0.0000 C   0  0  0  0  0  0  0  0  0  0  0  0
   -0.8980   -1.3261    0.0000 C   0  0  0  0  0  0  0  0  0  0  0  0
   -0.9000   -0.3261    0.0000 C   0  0  0  0  0  0  0  0  0  0  0  0
   -0.0352    0.1757    0.0000 C   0  0  0  0  0  0  0  0  0  0  0  0
    0.8792   -0.2289    0.0000 C   0  0  0  0  0  0  0  0  0  0  0  0
    1.5468    0.5155    0.0000 N   0  0  0  0  0  0  0  0  0  0  0  0
    2.5414    0.4133    0.0000 R   0  0  0  0  0  0  0  0  0  0  0  0
    1.0448    1.3805    0.0000 C   0  0  0  0  0  0  0  0  0  0  0  0
    1.3518    2.3321    0.0000 C   0  0  0  0  0  0  0  0  0  0  0  0
    0.6812    3.0739    0.0000 C   0  0  0  0  0  0  0  0  0  0  0  0
   -0.2966    2.8639    0.0000 C   0  0  0  0  0  0  0  0  0  0  0  0
   -0.6034    1.9121    0.0000 C   0  0  0  0  0  0  0  0  0  0  0  0
    0.0672    1.1705    0.0000 C   0  0  0  0  0  0  0  0  0  0  0  0
   -0.0310   -1.8243    0.0000 C   0  0  0  0  0  0  0  0  0  0  0  0
   -0.0290   -2.8243    0.0000 R   0  0  0  0  0  0  0  0  0  0  0  0
    0.8340   -1.3227    0.0000 O   0  0  0  0  0  0  0  0  0  0  0  0
  1  2  1  0
  2  3  1  0
  2  4  1  0
  4  5  1  6
  5  6  1  0
  6  7  2  0
  7  8  1  0
  8  9  1  0
  8 10  1  0
 10 11  2  0
 11 12  1  0
 12 13  2  0
 13 14  1  0
 14 15  2  0
  4 16  1  0
 16 17  1  0
 16 18  2  0
 15  6  1  0
 15 10  1  0
M  ISO  3   1   1   9   3  17   2
V    1 *
V    9 *
V   17 *
M  END
>  <symbol>  (709) 
D_meW

>  <m_Rgroups>  (709) 
[H],[OH],[H],None,None,None

>  <m_abbr>  (709) 
D_meW

>  <m_name>  (709) 
NMe-D-tryptophan

>  <m_type>  (709) 
aa

>  <m_subtype>  (709) 
modified

>  <m_chem_types>  (709) 
1:backbone_n,2:backbone_c,3:aromatic_nh

$$$$

     RDKit          2D

 19 20  0  0  0  0  0  0  0  0999 V2000
   -0.6960   -1.3181    0.0000 R   0  0  0  0  0  0  0  0  0  0  0  0
    0.2700   -1.5773    0.0000 N   0  0  0  0  0  0  0  0  0  0  0  0
    0.5282   -2.5435    0.0000 R   0  0  0  0  0  0  0  0  0  0  0  0
    0.9774   -0.8705    0.0000 C   0  0  0  0  0  0  0  0  0  0  0  0
    0.0114   -0.6113    0.0000 C   0  0  0  0  0  0  0  0  0  0  0  0
    1.2366    0.0953    0.0000 C   0  0  0  0  0  0  0  0  0  0  0  0
    0.5298    0.8027    0.0000 C   0  0  0  0  0  0  0  0  0  0  0  0
    0.6868    1.7903    0.0000 C   0  0  0  0  0  0  0  0  0  0  0  0
   -0.2040    2.2447    0.0000 N   0  0  0  0  0  0  0  0  0  0  0  0
   -0.3600    3.2323    0.0000 R   0  0  0  0  0  0  0  0  0  0  0  0
   -0.9114    1.5379    0.0000 C   0  0  0  0  0  0  0  0  0  0  0  0
   -1.9100    1.5907    0.0000 C   0  0  0  0  0  0  0  0  0  0  0  0
   -2.4550    0.7523    0.0000 C   0  0  0  0  0  0  0  0  0  0  0  0
   -2.0014   -0.1389    0.0000 C   0  0  0  0  0  0  0  0  0  0  0  0
   -1.0028   -0.1917    0.0000 C   0  0  0  0  0  0  0  0  0  0  0  0
   -0.4578    0.6467    0.0000 C   0  0  0  0  0  0  0  0  0  0  0  0
    1.6840   -1.5779    0.0000 C   0  0  0  0  0  0  0  0  0  0  0  0
    1.4248   -2.5439    0.0000 R   0  0  0  0  0  0  0  0  0  0  0  0
    2.6502   -1.3197    0.0000 O   0  0  0  0  0  0  0  0  0  0  0  0
  1  2  1  0
  2  3  1  0
  2  4  1  0
  4  5  1  1
  4  6  1  0
  6  7  1  0
  7  8  2  0
  8  9  1  0
  9 10  1  0
  9 11  1  0
 11 12  2  0
 12 13  1  0
 13 14  2  0
 14 15  1  0
 15 16  2  0
  4 17  1  0
 17 18  1  0
 17 19  2  0
 16  7  1  0
 16 11  1  0
M  ISO  4   1   1   3   3  10   4  18   2
V    1 *
V    3 *
V   10 *
V   18 *
M  END
>  <symbol>  (710) 
D_aMeTrp

>  <m_Rgroups>  (710) 
[H],[OH],[H],[H],None,None

>  <m_abbr>  (710) 
D_aMeTrp

>  <m_name>  (710) 
D-alpha-methyltryptophan (R)

>  <m_type>  (710) 
aa

>  <m_subtype>  (710) 
modified

>  <m_chem_types>  (710) 
1:backbone_n,2:backbone_c,3:backbone_n_mod,4:aromatic_nh

$$$$

     RDKit          2D

 20 21  0  0  0  0  0  0  0  0999 V2000
   -2.4124    1.3397    0.0000 R   0  0  0  0  0  0  0  0  0  0  0  0
   -1.5452    0.8417    0.0000 N   0  0  0  0  0  0  0  0  0  0  0  0
   -0.6806    1.3437    0.0000 R   0  0  0  0  0  0  0  0  0  0  0  0
   -1.5428   -0.1581    0.0000 C   0  0  0  0  0  0  0  0  0  0  0  0
   -0.6756   -0.6563    0.0000 C   0  0  0  0  0  0  0  0  0  0  0  0
    0.1890   -0.1543    0.0000 C   0  0  0  0  0  0  0  0  0  0  0  0
    0.2916    0.8403    0.0000 C   0  0  0  0  0  0  0  0  0  0  0  0
    1.2692    1.0507    0.0000 N   0  0  0  0  0  0  0  0  0  0  0  0
    1.6738    1.9649    0.0000 R   0  0  0  0  0  0  0  0  0  0  0  0
    1.7710    0.1857    0.0000 C   0  0  0  0  0  0  0  0  0  0  0  0
    2.7496   -0.0201    0.0000 C   0  0  0  0  0  0  0  0  0  0  0  0
    3.0608   -0.9703    0.0000 C   0  0  0  0  0  0  0  0  0  0  0  0
    4.0394   -1.1761    0.0000 F   0  0  0  0  0  0  0  0  0  0  0  0
    2.3934   -1.7151    0.0000 C   0  0  0  0  0  0  0  0  0  0  0  0
    1.4148   -1.5093    0.0000 C   0  0  0  0  0  0  0  0  0  0  0  0
    1.1036   -0.5589    0.0000 C   0  0  0  0  0  0  0  0  0  0  0  0
   -2.4078   -0.6601    0.0000 C   0  0  0  0  0  0  0  0  0  0  0  0
   -3.2750   -0.1621    0.0000 C   0  0  0  0  0  0  0  0  0  0  0  0
   -4.1398   -0.6639    0.0000 R   0  0  0  0  0  0  0  0  0  0  0  0
   -3.2774    0.8379    0.0000 O   0  0  0  0  0  0  0  0  0  0  0  0
  1  2  1  0
  2  3  1  0
  2  4  1  0
  4  5  1  1
  5  6  1  0
  6  7  2  0
  7  8  1  0
  8  9  1  0
  8 10  1  0
 10 11  1  0
 11 12  2  0
 12 13  1  0
 12 14  1  0
 14 15  2  0
 15 16  1  0
  4 17  1  0
 17 18  1  0
 18 19  1  0
 18 20  2  0
 16  6  1  0
 16 10  2  0
M  ISO  4   1   1   3   3   9   4  19   2
V    1 *
V    3 *
V    9 *
V   19 *
M  END
>  <symbol>  (711) 
b3hTrp_5F

>  <m_Rgroups>  (711) 
[H],[OH],[H],[H],None,None

>  <m_abbr>  (711) 
b3hTrp_5F

>  <m_name>  (711) 
beta3-Homo-5-fluorotryptophan (L)

>  <m_type>  (711) 
aa

>  <m_subtype>  (711) 
modified

>  <m_chem_types>  (711) 
1:backbone_n,2:backbone_c,3:backbone_n_mod,4:aromatic_nh

$$$$
D_meT
     RDKit          2D

 11 10  0  0  0  0  0  0  0  0999 V2000
   -2.0616   -1.9640    0.0000 R   0  0  0  0  0  1  0  0  0  0  0  0
   -0.6443   -1.4730    0.0000 N   0  0  0  0  0  0  0  0  0  0  0  0
    0.4896   -2.4550    0.0000 C   0  0  0  0  0  0  0  0  0  0  0  0
   -0.3608   -0.0000    0.0000 C   0  0  0  0  0  0  0  0  0  0  0  0
   -1.4947    0.9820    0.0000 C   0  0  0  0  0  0  0  0  0  0  0  0
   -1.2112    2.4550    0.0000 R   0  0  0  0  0  1  0  0  0  0  0  0
   -2.9120    0.4910    0.0000 O   0  0  0  0  0  0  0  0  0  0  0  0
    1.0566    0.4910    0.0000 C   0  0  0  0  0  0  0  0  0  0  0  0
    1.3401    1.9640    0.0000 C   0  0  0  0  0  0  0  0  0  0  0  0
    2.1905   -0.4910    0.0000 O   0  0  0  0  0  0  0  0  0  0  0  0
    3.6078    0.0000    0.0000 R   0  0  0  0  0  1  0  0  0  0  0  0
  1  2  1  0
  2  3  1  0
  4  2  1  1
  4  5  1  0
  5  6  1  0
  5  7  2  0
  4  8  1  0
  8  9  1  6
  8 10  1  0
 10 11  1  0
M  ISO  3   1   1   6   2  11   3
M  END

>  <symbol>  (712) 
D_meT

>  <m_Rgroups>  (712) 
[H],[OH],[H],None,None,None

>  <m_abbr>  (712) 
D_meT

>  <m_name>  (712) 
NMe-D-threonine

>  <m_type>  (712) 
aa

>  <m_subtype>  (712) 
modified

>  <m_chem_types>  (712) 
1:backbone_n,2:backbone_c,3:hydroxyl

$$$$

     RDKit          2D

 11 10  0  0  0  0  0  0  0  0999 V2000
   -2.0463    0.3676    0.0000 R   0  0  0  0  0  0  0  0  0  0  0  0
   -1.1791    0.8660    0.0000 N   0  0  0  0  0  0  0  0  0  0  0  0
   -1.1771    1.8660    0.0000 C   0  0  0  0  0  0  0  0  0  0  0  0
   -0.3141    0.3642    0.0000 C   0  0  0  0  0  0  0  0  0  0  0  0
   -0.3163   -0.6358    0.0000 C   0  0  0  0  0  0  0  0  0  0  0  0
    0.5487   -1.1374    0.0000 C   0  0  0  0  0  0  0  0  0  0  0  0
    0.5467   -2.1374    0.0000 S   0  0  0  0  0  0  0  0  0  0  0  0
    1.4117   -2.6392    0.0000 C   0  0  0  0  0  0  0  0  0  0  0  0
    0.5529    0.8624    0.0000 C   0  0  0  0  0  0  0  0  0  0  0  0
    1.4179    0.3608    0.0000 R   0  0  0  0  0  0  0  0  0  0  0  0
    0.5549    1.8624    0.0000 O   0  0  0  0  0  0  0  0  0  0  0  0
  1  2  1  0
  2  3  1  0
  2  4  1  0
  4  5  1  1
  5  6  1  0
  6  7  1  0
  7  8  1  0
  4  9  1  0
  9 10  1  0
  9 11  2  0
M  ISO  2   1   1  10   2
V    1 *
V   10 *
M  END
>  <symbol>  (713) 
D_meM

>  <m_Rgroups>  (713) 
[H],[OH],None,None,None,None

>  <m_abbr>  (713) 
D_meM

>  <m_name>  (713) 
NMe-D-methionine

>  <m_type>  (713) 
aa

>  <m_subtype>  (713) 
modified

>  <m_chem_types>  (713) 
1:backbone_n,2:backbone_c

$$$$

     RDKit          2D

 10  9  0  0  0  0  0  0  0  0999 V2000
   -1.9050    0.1038    0.0000 R   0  0  0  0  0  0  0  0  0  0  0  0
   -1.0380    0.6020    0.0000 N   0  0  0  0  0  0  0  0  0  0  0  0
   -1.0360    1.6020    0.0000 C   0  0  0  0  0  0  0  0  0  0  0  0
   -0.1730    0.1004    0.0000 C   0  0  0  0  0  0  0  0  0  0  0  0
   -0.1750   -0.8996    0.0000 C   0  0  0  0  0  0  0  0  0  0  0  0
    0.6900   -1.4014    0.0000 S   0  0  0  0  0  0  0  0  0  0  0  0
    0.6880   -2.4014    0.0000 R   0  0  0  0  0  0  0  0  0  0  0  0
    0.6940    0.5986    0.0000 C   0  0  0  0  0  0  0  0  0  0  0  0
    1.5590    0.0968    0.0000 R   0  0  0  0  0  0  0  0  0  0  0  0
    0.6960    1.5986    0.0000 O   0  0  0  0  0  0  0  0  0  0  0  0
  1  2  1  0
  2  3  1  0
  2  4  1  0
  4  5  1  1
  5  6  1  0
  6  7  1  0
  4  8  1  0
  8  9  1  0
  8 10  2  0
M  ISO  3   1   1   7   3   9   2
V    1 *
V    7 *
V    9 *
M  END
>  <symbol>  (714) 
D_meC

>  <m_Rgroups>  (714) 
[H],[OH],[H],None,None,None

>  <m_abbr>  (714) 
D_meC

>  <m_name>  (714) 
NMe-D-cysteine

>  <m_type>  (714) 
aa

>  <m_subtype>  (714) 
modified

>  <m_chem_types>  (714) 
1:backbone_n,2:backbone_c,3:thiol

$$$$

     RDKit          2D

 14 14  0  0  0  0  0  0  0  0999 V2000
   -1.1462   -0.6947    0.0000 R   0  0  0  0  0  0  0  0  0  0  0  0
   -0.2822   -1.1981    0.0000 N   0  0  0  0  0  0  0  0  0  0  0  0
   -0.2862   -2.1979    0.0000 C   0  0  0  0  0  0  0  0  0  0  0  0
    0.5858   -0.7015    0.0000 C   0  0  0  0  0  0  0  0  0  0  0  0
    0.5898    0.2983    0.0000 C   0  0  0  0  0  0  0  0  0  0  0  0
   -0.2740    0.8017    0.0000 C   0  0  0  0  0  0  0  0  0  0  0  0
   -1.1894    0.3985    0.0000 C   0  0  0  0  0  0  0  0  0  0  0  0
   -1.8552    1.1443    0.0000 N   0  0  0  0  0  0  0  0  0  0  0  0
   -1.3522    2.0085    0.0000 C   0  0  0  0  0  0  0  0  0  0  0  0
   -0.3748    1.7965    0.0000 N   0  0  0  0  0  0  0  0  0  0  0  0
    0.3710    2.4629    0.0000 R   0  0  0  0  0  0  0  0  0  0  0  0
    1.4500   -1.2049    0.0000 C   0  0  0  0  0  0  0  0  0  0  0  0
    1.4460   -2.2049    0.0000 R   0  0  0  0  0  0  0  0  0  0  0  0
    2.3180   -0.7085    0.0000 O   0  0  0  0  0  0  0  0  0  0  0  0
  1  2  1  0
  2  3  1  0
  2  4  1  0
  4  5  1  6
  5  6  1  0
  6  7  2  0
  7  8  1  0
  8  9  2  0
  9 10  1  0
 10 11  1  0
  4 12  1  0
 12 13  1  0
 12 14  2  0
 10  6  1  0
M  ISO  3   1   1  11   3  13   2
V    1 *
V   11 *
V   13 *
M  END
>  <symbol>  (715) 
D_meH

>  <m_Rgroups>  (715) 
[H],[OH],[H],None,None,None

>  <m_abbr>  (715) 
D_meH

>  <m_name>  (715) 
NMe-D-histidine

>  <m_type>  (715) 
aa

>  <m_subtype>  (715) 
modified

>  <m_chem_types>  (715) 
1:backbone_n,2:backbone_c,3:aromatic_nh

$$$$

     RDKit          2D

 11 10  0  0  0  0  0  0  0  0999 V2000
   -3.0813    0.0866    0.0000 R   0  0  0  0  0  0  0  0  0  0  0  0
   -1.8784   -0.8095    0.0000 N   0  0  0  0  0  0  0  0  0  0  0  0
   -2.0531   -2.2993    0.0000 C   0  0  0  0  0  0  0  0  0  0  0  0
   -0.5009   -0.2159    0.0000 C   0  0  0  0  0  0  0  0  0  0  0  0
    0.7020   -1.1120    0.0000 C   0  0  0  0  0  0  0  0  0  0  0  0
    2.0795   -0.5184    0.0000 C   0  0  0  0  0  0  0  0  0  0  0  0
    3.2824   -1.4145    0.0000 R   0  0  0  0  0  0  0  0  0  0  0  0
    2.2541    0.9714    0.0000 O   0  0  0  0  0  0  0  0  0  0  0  0
   -0.3263    1.2739    0.0000 C   0  0  0  0  0  0  0  0  0  0  0  0
    1.0513    1.8676    0.0000 R   0  0  0  0  0  0  0  0  0  0  0  0
   -1.5291    2.1701    0.0000 O   0  0  0  0  0  0  0  0  0  0  0  0
  1  2  1  0
  2  3  1  0
  2  4  1  0
  4  5  1  1
  5  6  1  0
  6  7  1  0
  6  8  2  0
  4  9  1  0
  9 10  1  0
  9 11  2  0
M  ISO  3   1   1   7   3  10   2
V    1 *
V    7 *
V   10 *
M  END
>  <symbol>  (716) 
D_meD

>  <m_Rgroups>  (716) 
[H],[OH],[OH],None,None,None

>  <m_abbr>  (716) 
D_meD

>  <m_name>  (716) 
NMe-D-aspartate

>  <m_type>  (716) 
aa

>  <m_subtype>  (716) 
modified

>  <m_chem_types>  (716) 
1:backbone_n,2:backbone_c,3:carboxyl

$$$$

     RDKit          2D

 12 11  0  0  0  0  0  0  0  0999 V2000
   -3.5281   -0.5638    0.0000 R   0  0  0  0  0  0  0  0  0  0  0  0
   -2.1179   -1.0748    0.0000 N   0  0  0  0  0  0  0  0  0  0  0  0
   -1.8553   -2.5517    0.0000 C   0  0  0  0  0  0  0  0  0  0  0  0
   -0.9702   -0.1090    0.0000 C   0  0  0  0  0  0  0  0  0  0  0  0
    0.4401   -0.6200    0.0000 C   0  0  0  0  0  0  0  0  0  0  0  0
    1.5878    0.3458    0.0000 C   0  0  0  0  0  0  0  0  0  0  0  0
    2.9981   -0.1653    0.0000 C   0  0  0  0  0  0  0  0  0  0  0  0
    4.1458    0.8005    0.0000 R   0  0  0  0  0  0  0  0  0  0  0  0
    3.2606   -1.6421    0.0000 O   0  0  0  0  0  0  0  0  0  0  0  0
   -1.2327    1.3678    0.0000 C   0  0  0  0  0  0  0  0  0  0  0  0
   -0.0850    2.3336    0.0000 R   0  0  0  0  0  0  0  0  0  0  0  0
   -2.6430    1.8789    0.0000 O   0  0  0  0  0  0  0  0  0  0  0  0
  1  2  1  0
  2  3  1  0
  2  4  1  0
  4  5  1  1
  5  6  1  0
  6  7  1  0
  7  8  1  0
  7  9  2  0
  4 10  1  0
 10 11  1  0
 10 12  2  0
M  ISO  3   1   1   8   3  11   2
V    1 *
V    8 *
V   11 *
M  END
>  <symbol>  (717) 
D_meE

>  <m_Rgroups>  (717) 
[H],[OH],[OH],None,None,None

>  <m_abbr>  (717) 
D_meE

>  <m_name>  (717) 
NMe-D-glutamate

>  <m_type>  (717) 
aa

>  <m_subtype>  (717) 
modified

>  <m_chem_types>  (717) 
1:backbone_n,2:backbone_c,3:carboxyl

$$$$

     RDKit          2D

 13 12  0  0  0  0  0  0  0  0999 V2000
   -2.1305    0.6196    0.0000 R   0  0  0  0  0  0  0  0  0  0  0  0
   -1.2635    1.1178    0.0000 N   0  0  0  0  0  0  0  0  0  0  0  0
   -1.2615    2.1178    0.0000 C   0  0  0  0  0  0  0  0  0  0  0  0
   -0.3985    0.6162    0.0000 C   0  0  0  0  0  0  0  0  0  0  0  0
   -0.4005   -0.3838    0.0000 C   0  0  0  0  0  0  0  0  0  0  0  0
    0.4645   -0.8856    0.0000 C   0  0  0  0  0  0  0  0  0  0  0  0
    1.3315   -0.3872    0.0000 O   0  0  0  0  0  0  0  0  0  0  0  0
    0.4625   -1.8856    0.0000 N   0  0  0  0  0  0  0  0  0  0  0  0
    1.3275   -2.3872    0.0000 R   0  0  0  0  0  0  0  0  0  0  0  0
   -0.4045   -2.3838    0.0000 R   0  0  0  0  0  0  0  0  0  0  0  0
    0.4687    1.1144    0.0000 C   0  0  0  0  0  0  0  0  0  0  0  0
    1.3337    0.6126    0.0000 R   0  0  0  0  0  0  0  0  0  0  0  0
    0.4707    2.1144    0.0000 O   0  0  0  0  0  0  0  0  0  0  0  0
  1  2  1  0
  2  3  1  0
  2  4  1  0
  4  5  1  1
  5  6  1  0
  6  7  2  0
  6  8  1  0
  8  9  1  0
  8 10  1  0
  4 11  1  0
 11 12  1  0
 11 13  2  0
M  ISO  4   1   1   9   3  10   4  12   2
V    1 *
V    9 *
V   10 *
V   12 *
M  END
>  <symbol>  (718) 
D_meN

>  <m_Rgroups>  (718) 
[H],[OH],[H],[H],None,None

>  <m_abbr>  (718) 
D_meN

>  <m_name>  (718) 
NMe-D-asparagine

>  <m_type>  (718) 
aa

>  <m_subtype>  (718) 
modified

>  <m_chem_types>  (718) 
1:backbone_n,2:backbone_c,3:amide_nh,4:amine_primary

$$$$

     RDKit          2D

 14 13  0  0  0  0  0  0  0  0999 V2000
   -2.2868   -0.9688    0.0000 R   0  0  0  0  0  0  0  0  0  0  0  0
   -1.4198   -1.4672    0.0000 N   0  0  0  0  0  0  0  0  0  0  0  0
   -1.4178   -2.4670    0.0000 C   0  0  0  0  0  0  0  0  0  0  0  0
   -0.5548   -0.9654    0.0000 C   0  0  0  0  0  0  0  0  0  0  0  0
   -0.5568    0.0346    0.0000 C   0  0  0  0  0  0  0  0  0  0  0  0
    0.3082    0.5362    0.0000 C   0  0  0  0  0  0  0  0  0  0  0  0
    0.3062    1.5362    0.0000 C   0  0  0  0  0  0  0  0  0  0  0  0
   -0.5608    2.0346    0.0000 O   0  0  0  0  0  0  0  0  0  0  0  0
    1.1712    2.0380    0.0000 N   0  0  0  0  0  0  0  0  0  0  0  0
    1.1692    3.0380    0.0000 R   0  0  0  0  0  0  0  0  0  0  0  0
    2.0382    1.5398    0.0000 R   0  0  0  0  0  0  0  0  0  0  0  0
    0.3122   -1.4636    0.0000 C   0  0  0  0  0  0  0  0  0  0  0  0
    1.1772   -0.9620    0.0000 R   0  0  0  0  0  0  0  0  0  0  0  0
    0.3142   -2.4636    0.0000 O   0  0  0  0  0  0  0  0  0  0  0  0
  1  2  1  0
  2  3  1  0
  2  4  1  0
  4  5  1  6
  5  6  1  0
  6  7  1  0
  7  8  2  0
  7  9  1  0
  9 10  1  0
  9 11  1  0
  4 12  1  0
 12 13  1  0
 12 14  2  0
M  ISO  4   1   1  10   3  11   4  13   2
V    1 *
V   10 *
V   11 *
V   13 *
M  END
>  <symbol>  (719) 
D_meQ

>  <m_Rgroups>  (719) 
[H],[OH],[H],[H],None,None

>  <m_abbr>  (719) 
D_meQ

>  <m_name>  (719) 
NMe-D-glutamine

>  <m_type>  (719) 
aa

>  <m_subtype>  (719) 
modified

>  <m_chem_types>  (719) 
1:backbone_n,2:backbone_c,3:amide_nh,4:amine_primary

$$$$

     RDKit          2D

 14 13  0  0  0  0  0  0  0  0999 V2000
   -2.3482    1.2190    0.0000 R   0  0  0  0  0  0  0  0  0  0  0  0
   -1.4812    1.7172    0.0000 N   0  0  0  0  0  0  0  0  0  0  0  0
   -1.4790    2.7172    0.0000 C   0  0  0  0  0  0  0  0  0  0  0  0
   -0.6162    1.2156    0.0000 C   0  0  0  0  0  0  0  0  0  0  0  0
   -0.6182    0.2156    0.0000 C   0  0  0  0  0  0  0  0  0  0  0  0
    0.2468   -0.2862    0.0000 C   0  0  0  0  0  0  0  0  0  0  0  0
    0.2448   -1.2862    0.0000 C   0  0  0  0  0  0  0  0  0  0  0  0
    1.1098   -1.7878    0.0000 C   0  0  0  0  0  0  0  0  0  0  0  0
    1.1078   -2.7878    0.0000 N   0  0  0  0  0  0  0  0  0  0  0  0
    1.9728   -3.2896    0.0000 R   0  0  0  0  0  0  0  0  0  0  0  0
    0.2408   -3.2860    0.0000 R   0  0  0  0  0  0  0  0  0  0  0  0
    0.2510    1.7138    0.0000 C   0  0  0  0  0  0  0  0  0  0  0  0
    1.1160    1.2120    0.0000 R   0  0  0  0  0  0  0  0  0  0  0  0
    0.2530    2.7138    0.0000 O   0  0  0  0  0  0  0  0  0  0  0  0
  1  2  1  0
  2  3  1  0
  2  4  1  0
  4  5  1  1
  5  6  1  0
  6  7  1  0
  7  8  1  0
  8  9  1  0
  9 10  1  0
  9 11  1  0
  4 12  1  0
 12 13  1  0
 12 14  2  0
M  ISO  4   1   1  10   3  11   4  13   2
V    1 *
V   10 *
V   11 *
V   13 *
M  END
>  <symbol>  (720) 
D_meK

>  <m_Rgroups>  (720) 
[H],[OH],[H],[H],None,None

>  <m_abbr>  (720) 
D_meK

>  <m_name>  (720) 
NMe-D-lysine

>  <m_type>  (720) 
aa

>  <m_subtype>  (720) 
modified

>  <m_chem_types>  (720) 
1:backbone_n,2:backbone_c,3:amine_primary,4:amine_secondary

$$$$

     RDKit          2D

 14 14  0  0  0  0  0  0  0  0999 V2000
   -0.9920   -0.6393    0.0000 R   0  0  0  0  0  0  0  0  0  0  0  0
   -0.1278   -1.1425    0.0000 N   0  0  0  0  0  0  0  0  0  0  0  0
   -0.1314   -2.1423    0.0000 C   0  0  0  0  0  0  0  0  0  0  0  0
    0.7400   -0.6455    0.0000 C   0  0  0  0  0  0  0  0  0  0  0  0
    0.7436    0.3545    0.0000 C   0  0  0  0  0  0  0  0  0  0  0  0
   -0.1206    0.8575    0.0000 C   0  0  0  0  0  0  0  0  0  0  0  0
   -0.9884    0.3605    0.0000 C   0  0  0  0  0  0  0  0  0  0  0  0
   -1.8526    0.8637    0.0000 C   0  0  0  0  0  0  0  0  0  0  0  0
   -1.8492    1.8637    0.0000 C   0  0  0  0  0  0  0  0  0  0  0  0
   -0.9812    2.3607    0.0000 C   0  0  0  0  0  0  0  0  0  0  0  0
   -0.1172    1.8575    0.0000 C   0  0  0  0  0  0  0  0  0  0  0  0
    1.6042   -1.1487    0.0000 C   0  0  0  0  0  0  0  0  0  0  0  0
    1.6006   -2.1487    0.0000 R   0  0  0  0  0  0  0  0  0  0  0  0
    2.4720   -0.6517    0.0000 O   0  0  0  0  0  0  0  0  0  0  0  0
  1  2  1  0
  2  3  1  0
  2  4  1  0
  4  5  1  6
  5  6  1  0
  6  7  1  0
  7  8  1  0
  8  9  1  0
  9 10  1  0
 10 11  1  0
  4 12  1  0
 12 13  1  0
 12 14  2  0
 11  6  1  0
M  ISO  2   1   1  13   2
V    1 *
V   13 *
M  END
>  <symbol>  (721) 
D_meCha

>  <m_Rgroups>  (721) 
[H],[OH],None,None,None,None

>  <m_abbr>  (721) 
D_meCha

>  <m_name>  (721) 
NMe-D-cyclohexylalanine

>  <m_type>  (721) 
aa

>  <m_subtype>  (721) 
modified

>  <m_chem_types>  (721) 
1:backbone_n,2:backbone_c

$$$$

     RDKit          2D

 20 21  0  0  0  0  0  0  0  0999 V2000
    0.0812   -1.5003    0.0000 R   0  0  0  0  0  0  0  0  0  0  0  0
    0.9454   -2.0033    0.0000 N   0  0  0  0  0  0  0  0  0  0  0  0
    0.9418   -3.0033    0.0000 C   0  0  0  0  0  0  0  0  0  0  0  0
    1.8132   -1.5065    0.0000 C   0  0  0  0  0  0  0  0  0  0  0  0
    1.8168   -0.5065    0.0000 C   0  0  0  0  0  0  0  0  0  0  0  0
    0.9526   -0.0035    0.0000 C   0  0  0  0  0  0  0  0  0  0  0  0
    0.0848   -0.5003    0.0000 C   0  0  0  0  0  0  0  0  0  0  0  0
   -0.7794    0.0029    0.0000 C   0  0  0  0  0  0  0  0  0  0  0  0
   -0.7758    1.0027    0.0000 C   0  0  0  0  0  0  0  0  0  0  0  0
   -1.6400    1.5059    0.0000 C   0  0  0  0  0  0  0  0  0  0  0  0
   -2.5078    1.0089    0.0000 C   0  0  0  0  0  0  0  0  0  0  0  0
   -3.3720    1.5121    0.0000 C   0  0  0  0  0  0  0  0  0  0  0  0
   -3.3684    2.5121    0.0000 C   0  0  0  0  0  0  0  0  0  0  0  0
   -2.5006    3.0089    0.0000 C   0  0  0  0  0  0  0  0  0  0  0  0
   -1.6364    2.5057    0.0000 C   0  0  0  0  0  0  0  0  0  0  0  0
    0.0920    1.4997    0.0000 C   0  0  0  0  0  0  0  0  0  0  0  0
    0.9562    0.9965    0.0000 C   0  0  0  0  0  0  0  0  0  0  0  0
    2.6774   -2.0095    0.0000 C   0  0  0  0  0  0  0  0  0  0  0  0
    2.6738   -3.0095    0.0000 R   0  0  0  0  0  0  0  0  0  0  0  0
    3.5452   -1.5127    0.0000 O   0  0  0  0  0  0  0  0  0  0  0  0
  1  2  1  0
  2  3  1  0
  2  4  1  0
  4  5  1  6
  5  6  1  0
  6  7  1  0
  7  8  2  0
  8  9  1  0
  9 10  1  0
 10 11  2  0
 11 12  1  0
 12 13  2  0
 13 14  1  0
 14 15  2  0
  9 16  2  0
 16 17  1  0
  4 18  1  0
 18 19  1  0
 18 20  2  0
 17  6  2  0
 15 10  1  0
M  ISO  2   1   1  19   2
V    1 *
V   19 *
M  END
>  <symbol>  (722) 
D_meBip

>  <m_Rgroups>  (722) 
[H],[OH],None,None,None,None

>  <m_abbr>  (722) 
D_meBip

>  <m_name>  (722) 
NMe-D-biphenylalanine (4)

>  <m_type>  (722) 
aa

>  <m_subtype>  (722) 
modified

>  <m_chem_types>  (722) 
1:backbone_n,2:backbone_c

$$$$

     RDKit          2D

 18 19  0  0  0  0  0  0  0  0999 V2000
   -2.4564   -1.3561    0.0000 R   0  0  0  0  0  0  0  0  0  0  0  0
   -1.5914   -1.8579    0.0000 N   0  0  0  0  0  0  0  0  0  0  0  0
   -1.5934   -2.8579    0.0000 C   0  0  0  0  0  0  0  0  0  0  0  0
   -0.7244   -1.3597    0.0000 C   0  0  0  0  0  0  0  0  0  0  0  0
   -0.7224   -0.3597    0.0000 C   0  0  0  0  0  0  0  0  0  0  0  0
    0.1448    0.1387    0.0000 C   0  0  0  0  0  0  0  0  0  0  0  0
    1.0096   -0.3631    0.0000 C   0  0  0  0  0  0  0  0  0  0  0  0
    1.8768    0.1351    0.0000 C   0  0  0  0  0  0  0  0  0  0  0  0
    1.8786    1.1351    0.0000 C   0  0  0  0  0  0  0  0  0  0  0  0
    1.0138    1.6369    0.0000 C   0  0  0  0  0  0  0  0  0  0  0  0
    1.0156    2.6367    0.0000 C   0  0  0  0  0  0  0  0  0  0  0  0
    0.1508    3.1387    0.0000 C   0  0  0  0  0  0  0  0  0  0  0  0
   -0.7164    2.6403    0.0000 C   0  0  0  0  0  0  0  0  0  0  0  0
   -0.7182    1.6403    0.0000 C   0  0  0  0  0  0  0  0  0  0  0  0
    0.1466    1.1385    0.0000 C   0  0  0  0  0  0  0  0  0  0  0  0
    0.1406   -1.8613    0.0000 C   0  0  0  0  0  0  0  0  0  0  0  0
    0.1386   -2.8613    0.0000 R   0  0  0  0  0  0  0  0  0  0  0  0
    1.0076   -1.3631    0.0000 O   0  0  0  0  0  0  0  0  0  0  0  0
  1  2  1  0
  2  3  1  0
  2  4  1  0
  4  5  1  6
  5  6  1  0
  6  7  2  0
  7  8  1  0
  8  9  2  0
  9 10  1  0
 10 11  2  0
 11 12  1  0
 12 13  2  0
 13 14  1  0
 14 15  2  0
  4 16  1  0
 16 17  1  0
 16 18  2  0
 15  6  1  0
 15 10  1  0
M  ISO  2   1   1  17   2
V    1 *
V   17 *
M  END
>  <symbol>  (723) 
D_me1Nal

>  <m_Rgroups>  (723) 
[H],[OH],None,None,None,None

>  <m_abbr>  (723) 
D_me1Nal

>  <m_name>  (723) 
NMe-D-1-naphthylalanine

>  <m_type>  (723) 
aa

>  <m_subtype>  (723) 
modified

>  <m_chem_types>  (723) 
1:backbone_n,2:backbone_c

$$$$

     RDKit          2D

 18 19  0  0  0  0  0  0  0  0999 V2000
   -0.2879   -0.9447    0.0000 R   0  0  0  0  0  0  0  0  0  0  0  0
    0.5785   -1.4441    0.0000 N   0  0  0  0  0  0  0  0  0  0  0  0
    0.5793   -2.4441    0.0000 C   0  0  0  0  0  0  0  0  0  0  0  0
    1.4441   -0.9433    0.0000 C   0  0  0  0  0  0  0  0  0  0  0  0
    1.4433    0.0567    0.0000 C   0  0  0  0  0  0  0  0  0  0  0  0
    0.5771    0.5559    0.0000 C   0  0  0  0  0  0  0  0  0  0  0  0
    0.5763    1.5561    0.0000 C   0  0  0  0  0  0  0  0  0  0  0  0
   -0.2903    2.0553    0.0000 C   0  0  0  0  0  0  0  0  0  0  0  0
   -1.1559    1.5547    0.0000 C   0  0  0  0  0  0  0  0  0  0  0  0
   -2.0223    2.0539    0.0000 C   0  0  0  0  0  0  0  0  0  0  0  0
   -2.8879    1.5533    0.0000 C   0  0  0  0  0  0  0  0  0  0  0  0
   -2.8871    0.5531    0.0000 C   0  0  0  0  0  0  0  0  0  0  0  0
   -2.0207    0.0539    0.0000 C   0  0  0  0  0  0  0  0  0  0  0  0
   -1.1551    0.5545    0.0000 C   0  0  0  0  0  0  0  0  0  0  0  0
   -0.2887    0.0553    0.0000 C   0  0  0  0  0  0  0  0  0  0  0  0
    2.3105   -1.4427    0.0000 C   0  0  0  0  0  0  0  0  0  0  0  0
    2.3113   -2.4427    0.0000 R   0  0  0  0  0  0  0  0  0  0  0  0
    3.1761   -0.9419    0.0000 O   0  0  0  0  0  0  0  0  0  0  0  0
  1  2  1  0
  2  3  1  0
  2  4  1  0
  4  5  1  6
  5  6  1  0
  6  7  1  0
  7  8  2  0
  8  9  1  0
  9 10  2  0
 10 11  1  0
 11 12  2  0
 12 13  1  0
 13 14  2  0
 14 15  1  0
  4 16  1  0
 16 17  1  0
 16 18  2  0
 15  6  2  0
 14  9  1  0
M  ISO  2   1   1  17   2
V    1 *
V   17 *
M  END
>  <symbol>  (724) 
D_me2Nal

>  <m_Rgroups>  (724) 
[H],[OH],None,None,None,None

>  <m_abbr>  (724) 
D_me2Nal

>  <m_name>  (724) 
NMe-D-2-naphthylalanine

>  <m_type>  (724) 
aa

>  <m_subtype>  (724) 
modified

>  <m_chem_types>  (724) 
1:backbone_n,2:backbone_c

$$$$

     RDKit          2D

 13 13  0  0  0  0  0  0  0  0999 V2000
   -1.7333   -0.6119    0.0000 R   0  0  0  0  0  0  0  0  0  0  0  0
   -0.8683   -1.1137    0.0000 N   0  0  0  0  0  0  0  0  0  0  0  0
   -0.8703   -2.1137    0.0000 C   0  0  0  0  0  0  0  0  0  0  0  0
   -0.0013   -0.6153    0.0000 C   0  0  0  0  0  0  0  0  0  0  0  0
    0.8637   -1.1171    0.0000 C   0  0  0  0  0  0  0  0  0  0  0  0
    0.8617   -2.1171    0.0000 R   0  0  0  0  0  0  0  0  0  0  0  0
    1.7309   -0.6189    0.0000 O   0  0  0  0  0  0  0  0  0  0  0  0
    0.0007    0.3845    0.0000 C   0  0  0  0  0  0  0  0  0  0  0  0
    0.8679    0.8829    0.0000 C   0  0  0  0  0  0  0  0  0  0  0  0
    0.8697    1.8827    0.0000 C   0  0  0  0  0  0  0  0  0  0  0  0
    0.0049    2.3847    0.0000 C   0  0  0  0  0  0  0  0  0  0  0  0
   -0.8623    1.8863    0.0000 C   0  0  0  0  0  0  0  0  0  0  0  0
   -0.8641    0.8863    0.0000 C   0  0  0  0  0  0  0  0  0  0  0  0
  1  2  1  0
  2  3  1  0
  4  2  1  6
  4  5  1  0
  5  6  1  0
  5  7  2  0
  4  8  1  0
  8  9  1  0
  9 10  1  0
 10 11  1  0
 11 12  1  0
 12 13  1  0
 13  8  1  0
M  ISO  2   1   1   6   2
V    1 *
V    6 *
M  END
>  <symbol>  (725) 
D_meChg

>  <m_Rgroups>  (725) 
[H],[OH],None,None,None,None

>  <m_abbr>  (725) 
D_meChg

>  <m_name>  (725) 
NMe-D-cyclohexylglycine

>  <m_type>  (725) 
aa

>  <m_subtype>  (725) 
modified

>  <m_chem_types>  (725) 
1:backbone_n,2:backbone_c

$$$$

     RDKit          2D

 21 22  0  0  0  0  0  0  0  0999 V2000
    0.6765   -2.5784    0.0000 R   0  0  0  0  0  0  0  0  0  0  0  0
    0.6289   -1.5524    0.0000 N   0  0  0  0  0  0  0  0  0  0  0  0
   -0.2165   -1.0610    0.0000 C   0  0  0  0  0  0  0  0  0  0  0  0
    1.3305   -1.0742    0.0000 C   0  0  0  0  0  0  0  0  0  0  0  0
    1.1347   -0.0434    0.0000 C   0  0  0  0  0  0  0  0  0  0  0  0
    0.0439    0.3930    0.0000 C   0  0  0  0  0  0  0  0  0  0  0  0
   -0.8533   -0.1884    0.0000 C   0  0  0  0  0  0  0  0  0  0  0  0
   -1.6931    0.3576    0.0000 C   0  0  0  0  0  0  0  0  0  0  0  0
   -2.5805   -0.1004    0.0000 C   0  0  0  0  0  0  0  0  0  0  0  0
   -2.6303   -1.1016    0.0000 C   0  0  0  0  0  0  0  0  0  0  0  0
   -1.7891   -1.6452    0.0000 C   0  0  0  0  0  0  0  0  0  0  0  0
   -0.9001   -1.1914    0.0000 C   0  0  0  0  0  0  0  0  0  0  0  0
   -0.0957    1.4888    0.0000 C   0  0  0  0  0  0  0  0  0  0  0  0
    0.7403    2.0366    0.0000 C   0  0  0  0  0  0  0  0  0  0  0  0
    0.6885    3.0340    0.0000 C   0  0  0  0  0  0  0  0  0  0  0  0
   -0.2053    3.4874    0.0000 C   0  0  0  0  0  0  0  0  0  0  0  0
   -1.0419    2.9400    0.0000 C   0  0  0  0  0  0  0  0  0  0  0  0
   -0.9903    1.9422    0.0000 C   0  0  0  0  0  0  0  0  0  0  0  0
    2.2837   -1.5480    0.0000 C   0  0  0  0  0  0  0  0  0  0  0  0
    2.3385   -2.5726    0.0000 R   0  0  0  0  0  0  0  0  0  0  0  0
    3.1303   -1.0230    0.0000 O   0  0  0  0  0  0  0  0  0  0  0  0
  1  2  1  0
  2  3  1  0
  2  4  1  0
  4  5  1  6
  5  6  1  0
  6  7  1  0
  7  8  2  0
  8  9  1  0
  9 10  2  0
 10 11  1  0
 11 12  2  0
  6 13  1  0
 13 14  2  0
 14 15  1  0
 15 16  2  0
 16 17  1  0
 17 18  2  0
  4 19  1  0
 19 20  1  0
 19 21  2  0
 12  7  1  0
 18 13  1  0
M  ISO  2   1   1  20   2
V    1 *
V   20 *
M  END
>  <symbol>  (726) 
D_meDip

>  <m_Rgroups>  (726) 
[H],[OH],None,None,None,None

>  <m_abbr>  (726) 
D_meDip

>  <m_name>  (726) 
NMe-D-diphenylalanine

>  <m_type>  (726) 
aa

>  <m_subtype>  (726) 
modified

>  <m_chem_types>  (726) 
1:backbone_n,2:backbone_c

$$$$

     RDKit          2D

 10  9  0  0  0  0  0  0  0  0999 V2000
   -1.9050    0.1038    0.0000 R   0  0  0  0  0  0  0  0  0  0  0  0
   -1.0380    0.6020    0.0000 N   0  0  0  0  0  0  0  0  0  0  0  0
   -1.0360    1.6020    0.0000 C   0  0  0  0  0  0  0  0  0  0  0  0
   -0.1730    0.1004    0.0000 C   0  0  0  0  0  0  0  0  0  0  0  0
   -0.1750   -0.8996    0.0000 C   0  0  0  0  0  0  0  0  0  0  0  0
    0.6900   -1.4014    0.0000 C   0  0  0  0  0  0  0  0  0  0  0  0
    0.6880   -2.4014    0.0000 C   0  0  0  0  0  0  0  0  0  0  0  0
    0.6940    0.5986    0.0000 C   0  0  0  0  0  0  0  0  0  0  0  0
    1.5590    0.0968    0.0000 R   0  0  0  0  0  0  0  0  0  0  0  0
    0.6960    1.5986    0.0000 O   0  0  0  0  0  0  0  0  0  0  0  0
  1  2  1  0
  2  3  1  0
  2  4  1  0
  4  5  1  1
  5  6  1  0
  6  7  1  0
  4  8  1  0
  8  9  1  0
  8 10  2  0
M  ISO  2   1   1   9   2
V    1 *
V    9 *
M  END
>  <symbol>  (727) 
D_meNva

>  <m_Rgroups>  (727) 
[H],[OH],None,None,None,None

>  <m_abbr>  (727) 
D_meNva

>  <m_name>  (727) 
NMe-D-norvaline

>  <m_type>  (727) 
aa

>  <m_subtype>  (727) 
modified

>  <m_chem_types>  (727) 
1:backbone_n,2:backbone_c

$$$$

     RDKit          2D

  9  8  0  0  0  0  0  0  0  0999 V2000
   -1.8286   -0.1630    0.0000 R   0  0  0  0  0  0  0  0  0  0  0  0
   -0.9616    0.3352    0.0000 N   0  0  0  0  0  0  0  0  0  0  0  0
   -0.9596    1.3352    0.0000 C   0  0  0  0  0  0  0  0  0  0  0  0
   -0.0966   -0.1664    0.0000 C   0  0  0  0  0  0  0  0  0  0  0  0
   -0.0986   -1.1664    0.0000 C   0  0  0  0  0  0  0  0  0  0  0  0
    0.7664   -1.6682    0.0000 C   0  0  0  0  0  0  0  0  0  0  0  0
    0.7704    0.3318    0.0000 C   0  0  0  0  0  0  0  0  0  0  0  0
    1.6354   -0.1700    0.0000 R   0  0  0  0  0  0  0  0  0  0  0  0
    0.7724    1.3318    0.0000 O   0  0  0  0  0  0  0  0  0  0  0  0
  1  2  1  0
  2  3  1  0
  2  4  1  0
  4  5  1  1
  5  6  1  0
  4  7  1  0
  7  8  1  0
  7  9  2  0
M  ISO  2   1   1   8   2
V    1 *
V    8 *
M  END
>  <symbol>  (728) 
D_meAbu

>  <m_Rgroups>  (728) 
[H],[OH],None,None,None,None

>  <m_abbr>  (728) 
D_meAbu

>  <m_name>  (728) 
NMe-D-2-aminobutyric acid

>  <m_type>  (728) 
aa

>  <m_subtype>  (728) 
modified

>  <m_chem_types>  (728) 
1:backbone_n,2:backbone_c

$$$$

     RDKit          2D

 14 14  0  0  0  0  0  0  0  0999 V2000
   -0.9920   -0.6393    0.0000 R   0  0  0  0  0  0  0  0  0  0  0  0
   -0.1278   -1.1425    0.0000 N   0  0  0  0  0  0  0  0  0  0  0  0
   -0.1314   -2.1423    0.0000 C   0  0  0  0  0  0  0  0  0  0  0  0
    0.7400   -0.6455    0.0000 C   0  0  0  0  0  0  0  0  0  0  0  0
    0.7436    0.3545    0.0000 C   0  0  0  0  0  0  0  0  0  0  0  0
   -0.1206    0.8575    0.0000 C   0  0  0  0  0  0  0  0  0  0  0  0
   -0.9884    0.3605    0.0000 C   0  0  0  0  0  0  0  0  0  0  0  0
   -1.8526    0.8637    0.0000 C   0  0  0  0  0  0  0  0  0  0  0  0
   -1.8492    1.8637    0.0000 C   0  0  0  0  0  0  0  0  0  0  0  0
   -0.9812    2.3607    0.0000 N   0  0  0  0  0  0  0  0  0  0  0  0
   -0.1172    1.8575    0.0000 C   0  0  0  0  0  0  0  0  0  0  0  0
    1.6042   -1.1487    0.0000 C   0  0  0  0  0  0  0  0  0  0  0  0
    1.6006   -2.1487    0.0000 R   0  0  0  0  0  0  0  0  0  0  0  0
    2.4720   -0.6517    0.0000 O   0  0  0  0  0  0  0  0  0  0  0  0
  1  2  1  0
  2  3  1  0
  2  4  1  0
  4  5  1  6
  5  6  1  0
  6  7  2  0
  7  8  1  0
  8  9  2  0
  9 10  1  0
 10 11  2  0
  4 12  1  0
 12 13  1  0
 12 14  2  0
 11  6  1  0
M  ISO  2   1   1  13   2
V    1 *
V   13 *
M  END
>  <symbol>  (729) 
D_me3Pal

>  <m_Rgroups>  (729) 
[H],[OH],None,None,None,None

>  <m_abbr>  (729) 
D_me3Pal

>  <m_name>  (729) 
NMe-D-3-pyridylalanine

>  <m_type>  (729) 
aa

>  <m_subtype>  (729) 
modified

>  <m_chem_types>  (729) 
1:backbone_n,2:backbone_c

$$$$

     RDKit          2D

 14 14  0  0  0  0  0  0  0  0999 V2000
   -0.9920   -0.6393    0.0000 R   0  0  0  0  0  0  0  0  0  0  0  0
   -0.1278   -1.1425    0.0000 N   0  0  0  0  0  0  0  0  0  0  0  0
   -0.1314   -2.1423    0.0000 C   0  0  0  0  0  0  0  0  0  0  0  0
    0.7400   -0.6455    0.0000 C   0  0  0  0  0  0  0  0  0  0  0  0
    0.7436    0.3545    0.0000 C   0  0  0  0  0  0  0  0  0  0  0  0
   -0.1206    0.8575    0.0000 C   0  0  0  0  0  0  0  0  0  0  0  0
   -0.9884    0.3605    0.0000 C   0  0  0  0  0  0  0  0  0  0  0  0
   -1.8526    0.8637    0.0000 C   0  0  0  0  0  0  0  0  0  0  0  0
   -1.8492    1.8637    0.0000 N   0  0  0  0  0  0  0  0  0  0  0  0
   -0.9812    2.3607    0.0000 C   0  0  0  0  0  0  0  0  0  0  0  0
   -0.1172    1.8575    0.0000 C   0  0  0  0  0  0  0  0  0  0  0  0
    1.6042   -1.1487    0.0000 C   0  0  0  0  0  0  0  0  0  0  0  0
    1.6006   -2.1487    0.0000 R   0  0  0  0  0  0  0  0  0  0  0  0
    2.4720   -0.6517    0.0000 O   0  0  0  0  0  0  0  0  0  0  0  0
  1  2  1  0
  2  3  1  0
  2  4  1  0
  4  5  1  6
  5  6  1  0
  6  7  1  0
  7  8  2  0
  8  9  1  0
  9 10  2  0
 10 11  1  0
  4 12  1  0
 12 13  1  0
 12 14  2  0
 11  6  2  0
M  ISO  2   1   1  13   2
V    1 *
V   13 *
M  END
>  <symbol>  (730) 
D_me4Pal

>  <m_Rgroups>  (730) 
[H],[OH],None,None,None,None

>  <m_abbr>  (730) 
D_me4Pal

>  <m_name>  (730) 
NMe-D-4-pyridylalanine

>  <m_type>  (730) 
aa

>  <m_subtype>  (730) 
modified

>  <m_chem_types>  (730) 
1:backbone_n,2:backbone_c

$$$$

     RDKit          2D

 15 15  0  0  0  0  0  0  0  0999 V2000
   -0.9231   -0.8673    0.0000 R   0  0  0  0  0  0  0  0  0  0  0  0
   -0.0567   -1.3667    0.0000 N   0  0  0  0  0  0  0  0  0  0  0  0
   -0.0559   -2.3667    0.0000 C   0  0  0  0  0  0  0  0  0  0  0  0
    0.8089   -0.8659    0.0000 C   0  0  0  0  0  0  0  0  0  0  0  0
    0.8081    0.1341    0.0000 C   0  0  0  0  0  0  0  0  0  0  0  0
   -0.0581    0.6333    0.0000 C   0  0  0  0  0  0  0  0  0  0  0  0
   -0.9239    0.1327    0.0000 C   0  0  0  0  0  0  0  0  0  0  0  0
   -1.7903    0.6319    0.0000 C   0  0  0  0  0  0  0  0  0  0  0  0
   -1.7911    1.6319    0.0000 C   0  0  0  0  0  0  0  0  0  0  0  0
   -0.9253    2.1325    0.0000 C   0  0  0  0  0  0  0  0  0  0  0  0
   -0.9261    3.1327    0.0000 F   0  0  0  0  0  0  0  0  0  0  0  0
   -0.0589    1.6333    0.0000 C   0  0  0  0  0  0  0  0  0  0  0  0
    1.6753   -1.3653    0.0000 C   0  0  0  0  0  0  0  0  0  0  0  0
    1.6761   -2.3653    0.0000 R   0  0  0  0  0  0  0  0  0  0  0  0
    2.5409   -0.8647    0.0000 O   0  0  0  0  0  0  0  0  0  0  0  0
  1  2  1  0
  2  3  1  0
  2  4  1  0
  4  5  1  6
  5  6  1  0
  6  7  2  0
  7  8  1  0
  8  9  2  0
  9 10  1  0
 10 11  1  0
 10 12  2  0
  4 13  1  0
 13 14  1  0
 13 15  2  0
 12  6  1  0
M  ISO  2   1   1  14   2
V    1 *
V   14 *
M  END
>  <symbol>  (731) 
D_mePhe_3F

>  <m_Rgroups>  (731) 
[H],[OH],None,None,None,None

>  <m_abbr>  (731) 
D_mePhe_3F

>  <m_name>  (731) 
NMe-D-3-fluorophenylalanine

>  <m_type>  (731) 
aa

>  <m_subtype>  (731) 
modified

>  <m_chem_types>  (731) 
1:backbone_n,2:backbone_c

$$$$

     RDKit          2D

 16 16  0  0  0  0  0  0  0  0999 V2000
   -0.8110   -1.0945    0.0000 R   0  0  0  0  0  0  0  0  0  0  0  0
    0.0554   -1.5937    0.0000 N   0  0  0  0  0  0  0  0  0  0  0  0
    0.0562   -2.5937    0.0000 C   0  0  0  0  0  0  0  0  0  0  0  0
    0.9210   -1.0931    0.0000 C   0  0  0  0  0  0  0  0  0  0  0  0
    0.9202   -0.0931    0.0000 C   0  0  0  0  0  0  0  0  0  0  0  0
    0.0540    0.4063    0.0000 C   0  0  0  0  0  0  0  0  0  0  0  0
   -0.8118   -0.0943    0.0000 C   0  0  0  0  0  0  0  0  0  0  0  0
   -1.6782    0.4049    0.0000 C   0  0  0  0  0  0  0  0  0  0  0  0
   -1.6790    1.4049    0.0000 C   0  0  0  0  0  0  0  0  0  0  0  0
   -0.8134    1.9055    0.0000 C   0  0  0  0  0  0  0  0  0  0  0  0
   -0.8142    2.9055    0.0000 O   0  0  0  0  0  0  0  0  0  0  0  0
   -1.6806    3.4049    0.0000 C   0  0  0  0  0  0  0  0  0  0  0  0
    0.0532    1.4063    0.0000 C   0  0  0  0  0  0  0  0  0  0  0  0
    1.7874   -1.5923    0.0000 C   0  0  0  0  0  0  0  0  0  0  0  0
    1.7882   -2.5923    0.0000 R   0  0  0  0  0  0  0  0  0  0  0  0
    2.6530   -1.0917    0.0000 O   0  0  0  0  0  0  0  0  0  0  0  0
  1  2  1  0
  2  3  1  0
  2  4  1  0
  4  5  1  6
  5  6  1  0
  6  7  1  0
  7  8  2  0
  8  9  1  0
  9 10  2  0
 10 11  1  0
 11 12  1  0
 10 13  1  0
  4 14  1  0
 14 15  1  0
 14 16  2  0
 13  6  2  0
M  ISO  2   1   1  15   2
V    1 *
V   15 *
M  END
>  <symbol>  (732) 
D_mePhe_3OMe

>  <m_Rgroups>  (732) 
[H],[OH],None,None,None,None

>  <m_abbr>  (732) 
D_mePhe_3OMe

>  <m_name>  (732) 
NMe-D-3-methoxyphenylalanine

>  <m_type>  (732) 
aa

>  <m_subtype>  (732) 
modified

>  <m_chem_types>  (732) 
1:backbone_n,2:backbone_c

$$$$

     RDKit          2D

 15 15  0  0  0  0  0  0  0  0999 V2000
   -0.8112   -0.7971    0.0000 R   0  0  0  0  0  0  0  0  0  0  0  0
    0.0530   -1.3003    0.0000 N   0  0  0  0  0  0  0  0  0  0  0  0
    0.0494   -2.3001    0.0000 C   0  0  0  0  0  0  0  0  0  0  0  0
    0.9208   -0.8033    0.0000 C   0  0  0  0  0  0  0  0  0  0  0  0
    0.9244    0.1967    0.0000 C   0  0  0  0  0  0  0  0  0  0  0  0
    0.0604    0.6997    0.0000 C   0  0  0  0  0  0  0  0  0  0  0  0
   -0.8076    0.2027    0.0000 C   0  0  0  0  0  0  0  0  0  0  0  0
   -1.6716    0.7059    0.0000 C   0  0  0  0  0  0  0  0  0  0  0  0
   -1.6682    1.7059    0.0000 C   0  0  0  0  0  0  0  0  0  0  0  0
   -2.5324    2.2091    0.0000 Br  0  0  0  0  0  0  0  0  0  0  0  0
   -0.8004    2.2029    0.0000 C   0  0  0  0  0  0  0  0  0  0  0  0
    0.0638    1.6997    0.0000 C   0  0  0  0  0  0  0  0  0  0  0  0
    1.7850   -1.3065    0.0000 C   0  0  0  0  0  0  0  0  0  0  0  0
    1.7814   -2.3063    0.0000 R   0  0  0  0  0  0  0  0  0  0  0  0
    2.6528   -0.8095    0.0000 O   0  0  0  0  0  0  0  0  0  0  0  0
  1  2  1  0
  2  3  1  0
  2  4  1  0
  4  5  1  6
  5  6  1  0
  6  7  1  0
  7  8  2  0
  8  9  1  0
  9 10  1  0
  9 11  2  0
 11 12  1  0
  4 13  1  0
 13 14  1  0
 13 15  2  0
 12  6  2  0
M  ISO  2   1   1  14   2
V    1 *
V   14 *
M  END
>  <symbol>  (733) 
D_mePhe_4Br

>  <m_Rgroups>  (733) 
[H],[OH],None,None,None,None

>  <m_abbr>  (733) 
D_mePhe_4Br

>  <m_name>  (733) 
NMe-D-4-bromophenylalanine

>  <m_type>  (733) 
aa

>  <m_subtype>  (733) 
modified

>  <m_chem_types>  (733) 
1:backbone_n,2:backbone_c

$$$$

     RDKit          2D

 18 18  0  0  0  0  0  0  0  0999 V2000
   -0.3040   -1.1734    0.0000 R   0  0  0  0  0  0  0  0  0  0  0  0
    0.5610   -1.6752    0.0000 N   0  0  0  0  0  0  0  0  0  0  0  0
    0.5590   -2.6752    0.0000 C   0  0  0  0  0  0  0  0  0  0  0  0
    1.4282   -1.1770    0.0000 C   0  0  0  0  0  0  0  0  0  0  0  0
    1.4302   -0.1770    0.0000 C   0  0  0  0  0  0  0  0  0  0  0  0
    0.5652    0.3248    0.0000 C   0  0  0  0  0  0  0  0  0  0  0  0
    0.5670    1.3246    0.0000 C   0  0  0  0  0  0  0  0  0  0  0  0
   -0.2978    1.8266    0.0000 C   0  0  0  0  0  0  0  0  0  0  0  0
   -1.1650    1.3282    0.0000 C   0  0  0  0  0  0  0  0  0  0  0  0
   -2.0298    1.8298    0.0000 C   0  0  0  0  0  0  0  0  0  0  0  0
   -2.5316    0.9648    0.0000 F   0  0  0  0  0  0  0  0  0  0  0  0
   -3.0298    1.8320    0.0000 F   0  0  0  0  0  0  0  0  0  0  0  0
   -2.0278    2.8298    0.0000 F   0  0  0  0  0  0  0  0  0  0  0  0
   -1.1668    0.3282    0.0000 C   0  0  0  0  0  0  0  0  0  0  0  0
   -0.3020   -0.1736    0.0000 C   0  0  0  0  0  0  0  0  0  0  0  0
    2.2932   -1.6786    0.0000 C   0  0  0  0  0  0  0  0  0  0  0  0
    2.2912   -2.6786    0.0000 R   0  0  0  0  0  0  0  0  0  0  0  0
    3.1602   -1.1804    0.0000 O   0  0  0  0  0  0  0  0  0  0  0  0
  1  2  1  0
  2  3  1  0
  2  4  1  0
  4  5  1  6
  5  6  1  0
  6  7  1  0
  7  8  2  0
  8  9  1  0
  9 10  1  0
 10 11  1  0
 10 12  1  0
 10 13  1  0
  9 14  2  0
 14 15  1  0
  4 16  1  0
 16 17  1  0
 16 18  2  0
 15  6  2  0
M  ISO  2   1   1  17   2
V    1 *
V   17 *
M  END
>  <symbol>  (734) 
D_mePhe_4CF3

>  <m_Rgroups>  (734) 
[H],[OH],None,None,None,None

>  <m_abbr>  (734) 
D_mePhe_4CF3

>  <m_name>  (734) 
NMe-D-4-(trifluoromethyl)phenylalanine

>  <m_type>  (734) 
aa

>  <m_subtype>  (734) 
modified

>  <m_chem_types>  (734) 
1:backbone_n,2:backbone_c

$$$$

     RDKit          2D

 15 15  0  0  0  0  0  0  0  0999 V2000
   -0.8112   -0.7971    0.0000 R   0  0  0  0  0  0  0  0  0  0  0  0
    0.0530   -1.3003    0.0000 N   0  0  0  0  0  0  0  0  0  0  0  0
    0.0494   -2.3001    0.0000 C   0  0  0  0  0  0  0  0  0  0  0  0
    0.9208   -0.8033    0.0000 C   0  0  0  0  0  0  0  0  0  0  0  0
    0.9244    0.1967    0.0000 C   0  0  0  0  0  0  0  0  0  0  0  0
    0.0604    0.6997    0.0000 C   0  0  0  0  0  0  0  0  0  0  0  0
   -0.8076    0.2027    0.0000 C   0  0  0  0  0  0  0  0  0  0  0  0
   -1.6716    0.7059    0.0000 C   0  0  0  0  0  0  0  0  0  0  0  0
   -1.6682    1.7059    0.0000 C   0  0  0  0  0  0  0  0  0  0  0  0
   -2.5324    2.2091    0.0000 Cl  0  0  0  0  0  0  0  0  0  0  0  0
   -0.8004    2.2029    0.0000 C   0  0  0  0  0  0  0  0  0  0  0  0
    0.0638    1.6997    0.0000 C   0  0  0  0  0  0  0  0  0  0  0  0
    1.7850   -1.3065    0.0000 C   0  0  0  0  0  0  0  0  0  0  0  0
    1.7814   -2.3063    0.0000 R   0  0  0  0  0  0  0  0  0  0  0  0
    2.6528   -0.8095    0.0000 O   0  0  0  0  0  0  0  0  0  0  0  0
  1  2  1  0
  2  3  1  0
  2  4  1  0
  4  5  1  6
  5  6  1  0
  6  7  1  0
  7  8  2  0
  8  9  1  0
  9 10  1  0
  9 11  2  0
 11 12  1  0
  4 13  1  0
 13 14  1  0
 13 15  2  0
 12  6  2  0
M  ISO  2   1   1  14   2
V    1 *
V   14 *
M  END
>  <symbol>  (735) 
D_mePhe_4Cl

>  <m_Rgroups>  (735) 
[H],[OH],None,None,None,None

>  <m_abbr>  (735) 
D_mePhe_4Cl

>  <m_name>  (735) 
NMe-D-4-chlorophenylalanine

>  <m_type>  (735) 
aa

>  <m_subtype>  (735) 
modified

>  <m_chem_types>  (735) 
1:backbone_n,2:backbone_c

$$$$

     RDKit          2D

 15 15  0  0  0  0  0  0  0  0999 V2000
   -0.8112   -0.7971    0.0000 R   0  0  0  0  0  0  0  0  0  0  0  0
    0.0530   -1.3003    0.0000 N   0  0  0  0  0  0  0  0  0  0  0  0
    0.0494   -2.3001    0.0000 C   0  0  0  0  0  0  0  0  0  0  0  0
    0.9208   -0.8033    0.0000 C   0  0  0  0  0  0  0  0  0  0  0  0
    0.9244    0.1967    0.0000 C   0  0  0  0  0  0  0  0  0  0  0  0
    0.0604    0.6997    0.0000 C   0  0  0  0  0  0  0  0  0  0  0  0
   -0.8076    0.2027    0.0000 C   0  0  0  0  0  0  0  0  0  0  0  0
   -1.6716    0.7059    0.0000 C   0  0  0  0  0  0  0  0  0  0  0  0
   -1.6682    1.7059    0.0000 C   0  0  0  0  0  0  0  0  0  0  0  0
   -2.5324    2.2091    0.0000 F   0  0  0  0  0  0  0  0  0  0  0  0
   -0.8004    2.2029    0.0000 C   0  0  0  0  0  0  0  0  0  0  0  0
    0.0638    1.6997    0.0000 C   0  0  0  0  0  0  0  0  0  0  0  0
    1.7850   -1.3065    0.0000 C   0  0  0  0  0  0  0  0  0  0  0  0
    1.7814   -2.3063    0.0000 R   0  0  0  0  0  0  0  0  0  0  0  0
    2.6528   -0.8095    0.0000 O   0  0  0  0  0  0  0  0  0  0  0  0
  1  2  1  0
  2  3  1  0
  2  4  1  0
  4  5  1  6
  5  6  1  0
  6  7  1  0
  7  8  2  0
  8  9  1  0
  9 10  1  0
  9 11  2  0
 11 12  1  0
  4 13  1  0
 13 14  1  0
 13 15  2  0
 12  6  2  0
M  ISO  2   1   1  14   2
V    1 *
V   14 *
M  END
>  <symbol>  (736) 
D_mePhe_4F

>  <m_Rgroups>  (736) 
[H],[OH],None,None,None,None

>  <m_abbr>  (736) 
D_mePhe_4F

>  <m_name>  (736) 
NMe-D-4-fluorophenylalanine

>  <m_type>  (736) 
aa

>  <m_subtype>  (736) 
modified

>  <m_chem_types>  (736) 
1:backbone_n,2:backbone_c

$$$$

     RDKit          2D

 16 16  0  0  0  0  0  0  0  0999 V2000
   -0.6531   -0.9977    0.0000 R   0  0  0  0  0  0  0  0  0  0  0  0
    0.2111   -1.5007    0.0000 N   0  0  0  0  0  0  0  0  0  0  0  0
    0.2075   -2.5007    0.0000 C   0  0  0  0  0  0  0  0  0  0  0  0
    1.0789   -1.0039    0.0000 C   0  0  0  0  0  0  0  0  0  0  0  0
    1.0825   -0.0039    0.0000 C   0  0  0  0  0  0  0  0  0  0  0  0
    0.2183    0.4991    0.0000 C   0  0  0  0  0  0  0  0  0  0  0  0
   -0.6495    0.0023    0.0000 C   0  0  0  0  0  0  0  0  0  0  0  0
   -1.5137    0.5055    0.0000 C   0  0  0  0  0  0  0  0  0  0  0  0
   -1.5101    1.5053    0.0000 C   0  0  0  0  0  0  0  0  0  0  0  0
   -2.3743    2.0085    0.0000 O   0  0  0  0  0  0  0  0  0  0  0  0
   -2.3707    3.0085    0.0000 C   0  0  0  0  0  0  0  0  0  0  0  0
   -0.6423    2.0023    0.0000 C   0  0  0  0  0  0  0  0  0  0  0  0
    0.2219    1.4991    0.0000 C   0  0  0  0  0  0  0  0  0  0  0  0
    1.9431   -1.5069    0.0000 C   0  0  0  0  0  0  0  0  0  0  0  0
    1.9395   -2.5069    0.0000 R   0  0  0  0  0  0  0  0  0  0  0  0
    2.8109   -1.0101    0.0000 O   0  0  0  0  0  0  0  0  0  0  0  0
  1  2  1  0
  2  3  1  0
  2  4  1  0
  4  5  1  6
  5  6  1  0
  6  7  1  0
  7  8  2  0
  8  9  1  0
  9 10  1  0
 10 11  1  0
  9 12  2  0
 12 13  1  0
  4 14  1  0
 14 15  1  0
 14 16  2  0
 13  6  2  0
M  ISO  2   1   1  15   2
V    1 *
V   15 *
M  END
>  <symbol>  (737) 
D_mePhe_4OMe

>  <m_Rgroups>  (737) 
[H],[OH],None,None,None,None

>  <m_abbr>  (737) 
D_mePhe_4OMe

>  <m_name>  (737) 
NMe-D-4-methoxyphenylalanine

>  <m_type>  (737) 
aa

>  <m_subtype>  (737) 
modified

>  <m_chem_types>  (737) 
1:backbone_n,2:backbone_c

$$$$

     RDKit          2D

 18 18  0  0  0  0  0  0  0  0999 V2000
   -0.3040   -1.1734    0.0000 R   0  0  0  0  0  0  0  0  0  0  0  0
    0.5610   -1.6752    0.0000 N   0  0  0  0  0  0  0  0  0  0  0  0
    0.5590   -2.6752    0.0000 C   0  0  0  0  0  0  0  0  0  0  0  0
    1.4282   -1.1770    0.0000 C   0  0  0  0  0  0  0  0  0  0  0  0
    1.4302   -0.1770    0.0000 C   0  0  0  0  0  0  0  0  0  0  0  0
    0.5652    0.3248    0.0000 C   0  0  0  0  0  0  0  0  0  0  0  0
    0.5670    1.3246    0.0000 C   0  0  0  0  0  0  0  0  0  0  0  0
   -0.2978    1.8266    0.0000 C   0  0  0  0  0  0  0  0  0  0  0  0
   -1.1650    1.3282    0.0000 C   0  0  0  0  0  0  0  0  0  0  0  0
   -2.0298    1.8298    0.0000 C   0  0  0  0  0  0  0  0  0  0  0  0
   -2.5316    0.9648    0.0000 C   0  0  0  0  0  0  0  0  0  0  0  0
   -3.0298    1.8320    0.0000 C   0  0  0  0  0  0  0  0  0  0  0  0
   -2.0278    2.8298    0.0000 C   0  0  0  0  0  0  0  0  0  0  0  0
   -1.1668    0.3282    0.0000 C   0  0  0  0  0  0  0  0  0  0  0  0
   -0.3020   -0.1736    0.0000 C   0  0  0  0  0  0  0  0  0  0  0  0
    2.2932   -1.6786    0.0000 C   0  0  0  0  0  0  0  0  0  0  0  0
    2.2912   -2.6786    0.0000 R   0  0  0  0  0  0  0  0  0  0  0  0
    3.1602   -1.1804    0.0000 O   0  0  0  0  0  0  0  0  0  0  0  0
  1  2  1  0
  2  3  1  0
  2  4  1  0
  4  5  1  6
  5  6  1  0
  6  7  1  0
  7  8  2  0
  8  9  1  0
  9 10  1  0
 10 11  1  0
 10 12  1  0
 10 13  1  0
  9 14  2  0
 14 15  1  0
  4 16  1  0
 16 17  1  0
 16 18  2  0
 15  6  2  0
M  ISO  2   1   1  17   2
V    1 *
V   17 *
M  END
>  <symbol>  (738) 
D_mePhe_4tBu

>  <m_Rgroups>  (738) 
[H],[OH],None,None,None,None

>  <m_abbr>  (738) 
D_mePhe_4tBu

>  <m_name>  (738) 
NMe-D-4-tert-butylphenylalanine

>  <m_type>  (738) 
aa

>  <m_subtype>  (738) 
modified

>  <m_chem_types>  (738) 
1:backbone_n,2:backbone_c

$$$$

     RDKit          2D

 19 20  0  0  0  0  0  0  0  0999 V2000
   -0.7796   -1.5358    0.0000 R   0  0  0  0  0  0  0  0  0  0  0  0
    0.0862   -2.0360    0.0000 N   0  0  0  0  0  0  0  0  0  0  0  0
    0.0858   -3.0358    0.0000 C   0  0  0  0  0  0  0  0  0  0  0  0
    0.9524   -1.5364    0.0000 C   0  0  0  0  0  0  0  0  0  0  0  0
    0.9528   -0.5364    0.0000 C   0  0  0  0  0  0  0  0  0  0  0  0
    0.0872   -0.0360    0.0000 C   0  0  0  0  0  0  0  0  0  0  0  0
   -0.8266   -0.4420    0.0000 C   0  0  0  0  0  0  0  0  0  0  0  0
   -1.4954    0.3012    0.0000 N   0  0  0  0  0  0  0  0  0  0  0  0
   -2.4898    0.1974    0.0000 R   0  0  0  0  0  0  0  0  0  0  0  0
   -0.9948    1.1672    0.0000 C   0  0  0  0  0  0  0  0  0  0  0  0
   -1.3032    2.1184    0.0000 C   0  0  0  0  0  0  0  0  0  0  0  0
   -0.6338    2.8612    0.0000 C   0  0  0  0  0  0  0  0  0  0  0  0
   -0.9422    3.8122    0.0000 F   0  0  0  0  0  0  0  0  0  0  0  0
    0.3444    2.6526    0.0000 C   0  0  0  0  0  0  0  0  0  0  0  0
    0.6526    1.7014    0.0000 C   0  0  0  0  0  0  0  0  0  0  0  0
   -0.0168    0.9586    0.0000 C   0  0  0  0  0  0  0  0  0  0  0  0
    1.8180   -2.0368    0.0000 C   0  0  0  0  0  0  0  0  0  0  0  0
    1.8176   -3.0370    0.0000 R   0  0  0  0  0  0  0  0  0  0  0  0
    2.6844   -1.5372    0.0000 O   0  0  0  0  0  0  0  0  0  0  0  0
  1  2  1  0
  2  3  1  0
  2  4  1  0
  4  5  1  6
  5  6  1  0
  6  7  2  0
  7  8  1  0
  8  9  1  0
  8 10  1  0
 10 11  1  0
 11 12  2  0
 12 13  1  0
 12 14  1  0
 14 15  2  0
 15 16  1  0
  4 17  1  0
 17 18  1  0
 17 19  2  0
 16  6  1  0
 16 10  2  0
M  ISO  3   1   1   9   3  18   2
V    1 *
V    9 *
V   18 *
M  END
>  <symbol>  (739) 
D_meTrp_5F

>  <m_Rgroups>  (739) 
[H],[OH],[H],None,None,None

>  <m_abbr>  (739) 
D_meTrp_5F

>  <m_name>  (739) 
NMe-D-5-fluorotryptophan

>  <m_type>  (739) 
aa

>  <m_subtype>  (739) 
modified

>  <m_chem_types>  (739) 
1:backbone_n,2:backbone_c,3:aromatic_nh

$$$$

     RDKit          2D

 19 20  0  0  0  0  0  0  0  0999 V2000
   -0.7796   -1.5358    0.0000 R   0  0  0  0  0  0  0  0  0  0  0  0
    0.0862   -2.0360    0.0000 N   0  0  0  0  0  0  0  0  0  0  0  0
    0.0858   -3.0358    0.0000 C   0  0  0  0  0  0  0  0  0  0  0  0
    0.9524   -1.5364    0.0000 C   0  0  0  0  0  0  0  0  0  0  0  0
    0.9528   -0.5364    0.0000 C   0  0  0  0  0  0  0  0  0  0  0  0
    0.0872   -0.0360    0.0000 C   0  0  0  0  0  0  0  0  0  0  0  0
   -0.8266   -0.4420    0.0000 C   0  0  0  0  0  0  0  0  0  0  0  0
   -1.4954    0.3012    0.0000 N   0  0  0  0  0  0  0  0  0  0  0  0
   -2.4898    0.1974    0.0000 R   0  0  0  0  0  0  0  0  0  0  0  0
   -0.9948    1.1672    0.0000 C   0  0  0  0  0  0  0  0  0  0  0  0
   -1.3032    2.1184    0.0000 C   0  0  0  0  0  0  0  0  0  0  0  0
   -0.6338    2.8612    0.0000 C   0  0  0  0  0  0  0  0  0  0  0  0
   -0.9422    3.8122    0.0000 C   0  0  0  0  0  0  0  0  0  0  0  0
    0.3444    2.6526    0.0000 C   0  0  0  0  0  0  0  0  0  0  0  0
    0.6526    1.7014    0.0000 C   0  0  0  0  0  0  0  0  0  0  0  0
   -0.0168    0.9586    0.0000 C   0  0  0  0  0  0  0  0  0  0  0  0
    1.8180   -2.0368    0.0000 C   0  0  0  0  0  0  0  0  0  0  0  0
    1.8176   -3.0370    0.0000 R   0  0  0  0  0  0  0  0  0  0  0  0
    2.6844   -1.5372    0.0000 O   0  0  0  0  0  0  0  0  0  0  0  0
  1  2  1  0
  2  3  1  0
  2  4  1  0
  4  5  1  6
  5  6  1  0
  6  7  2  0
  7  8  1  0
  8  9  1  0
  8 10  1  0
 10 11  1  0
 11 12  2  0
 12 13  1  0
 12 14  1  0
 14 15  2  0
 15 16  1  0
  4 17  1  0
 17 18  1  0
 17 19  2  0
 16  6  1  0
 16 10  2  0
M  ISO  3   1   1   9   3  18   2
V    1 *
V    9 *
V   18 *
M  END
>  <symbol>  (740) 
D_meTrp_5Me

>  <m_Rgroups>  (740) 
[H],[OH],[H],None,None,None

>  <m_abbr>  (740) 
D_meTrp_5Me

>  <m_name>  (740) 
NMe-D-5-methyltryptophan

>  <m_type>  (740) 
aa

>  <m_subtype>  (740) 
modified

>  <m_chem_types>  (740) 
1:backbone_n,2:backbone_c,3:aromatic_nh

$$$$

     RDKit          2D

 18 19  0  0  0  0  0  0  0  0999 V2000
   -2.6300   -1.3297    0.0000 R   0  0  0  0  0  0  0  0  0  0  0  0
   -1.7628   -1.8279    0.0000 N   0  0  0  0  0  0  0  0  0  0  0  0
   -1.7608   -2.8281    0.0000 C   0  0  0  0  0  0  0  0  0  0  0  0
   -0.8980   -1.3261    0.0000 C   0  0  0  0  0  0  0  0  0  0  0  0
   -0.9000   -0.3261    0.0000 C   0  0  0  0  0  0  0  0  0  0  0  0
   -0.0352    0.1757    0.0000 C   0  0  0  0  0  0  0  0  0  0  0  0
    0.8792   -0.2289    0.0000 C   0  0  0  0  0  0  0  0  0  0  0  0
    1.5468    0.5155    0.0000 N   0  0  0  0  0  0  0  0  0  0  0  0
    2.5414    0.4133    0.0000 R   0  0  0  0  0  0  0  0  0  0  0  0
    1.0448    1.3805    0.0000 C   0  0  0  0  0  0  0  0  0  0  0  0
    1.3518    2.3321    0.0000 N   0  0  0  0  0  0  0  0  0  0  0  0
    0.6812    3.0739    0.0000 C   0  0  0  0  0  0  0  0  0  0  0  0
   -0.2966    2.8639    0.0000 C   0  0  0  0  0  0  0  0  0  0  0  0
   -0.6034    1.9121    0.0000 C   0  0  0  0  0  0  0  0  0  0  0  0
    0.0672    1.1705    0.0000 C   0  0  0  0  0  0  0  0  0  0  0  0
   -0.0310   -1.8243    0.0000 C   0  0  0  0  0  0  0  0  0  0  0  0
   -0.0290   -2.8243    0.0000 R   0  0  0  0  0  0  0  0  0  0  0  0
    0.8340   -1.3227    0.0000 O   0  0  0  0  0  0  0  0  0  0  0  0
  1  2  1  0
  2  3  1  0
  2  4  1  0
  4  5  1  6
  5  6  1  0
  6  7  2  0
  7  8  1  0
  8  9  1  0
  8 10  1  0
 10 11  2  0
 11 12  1  0
 12 13  2  0
 13 14  1  0
 14 15  2  0
  4 16  1  0
 16 17  1  0
 16 18  2  0
 15  6  1  0
 15 10  1  0
M  ISO  3   1   1   9   3  17   2
V    1 *
V    9 *
V   17 *
M  END
>  <symbol>  (741) 
D_meTrp_7Aza

>  <m_Rgroups>  (741) 
[H],[OH],[H],None,None,None

>  <m_abbr>  (741) 
D_meTrp_7Aza

>  <m_name>  (741) 
NMe-D-7-azatryptophan

>  <m_type>  (741) 
aa

>  <m_subtype>  (741) 
modified

>  <m_chem_types>  (741) 
1:backbone_n,2:backbone_c,3:aromatic_nh

$$$$

     RDKit          2D

 13 12  0  0  0  0  0  0  0  0999 V2000
   -2.3300    0.8124    0.0000 R   0  0  0  0  0  0  0  0  0  0  0  0
   -1.4630    1.3106    0.0000 N   0  0  0  0  0  0  0  0  0  0  0  0
   -1.4608    2.3106    0.0000 C   0  0  0  0  0  0  0  0  0  0  0  0
   -0.5980    0.8088    0.0000 C   0  0  0  0  0  0  0  0  0  0  0  0
   -0.6000   -0.1910    0.0000 C   0  0  0  0  0  0  0  0  0  0  0  0
    0.2650   -0.6928    0.0000 C   0  0  0  0  0  0  0  0  0  0  0  0
    0.2630   -1.6928    0.0000 C   0  0  0  0  0  0  0  0  0  0  0  0
    1.1280   -2.1944    0.0000 N   0  0  0  0  0  0  0  0  0  0  0  0
    1.1260   -3.1944    0.0000 R   0  0  0  0  0  0  0  0  0  0  0  0
    1.9952   -1.6962    0.0000 R   0  0  0  0  0  0  0  0  0  0  0  0
    0.2692    1.3072    0.0000 C   0  0  0  0  0  0  0  0  0  0  0  0
    1.1342    0.8054    0.0000 R   0  0  0  0  0  0  0  0  0  0  0  0
    0.2712    2.3072    0.0000 O   0  0  0  0  0  0  0  0  0  0  0  0
  1  2  1  0
  2  3  1  0
  2  4  1  0
  4  5  1  6
  5  6  1  0
  6  7  1  0
  7  8  1  0
  8  9  1  0
  8 10  1  0
  4 11  1  0
 11 12  1  0
 11 13  2  0
M  ISO  4   1   1   9   3  10   4  12   2
V    1 *
V    9 *
V   10 *
V   12 *
M  END
>  <symbol>  (742) 
meOrn

>  <m_Rgroups>  (742) 
[H],[OH],[H],[H],None,None

>  <m_abbr>  (742) 
meOrn

>  <m_name>  (742) 
NMe-L-ornithine

>  <m_type>  (742) 
aa

>  <m_subtype>  (742) 
modified

>  <m_chem_types>  (742) 
1:backbone_n,2:backbone_c,3:amine_primary,4:amine_secondary

$$$$

     RDKit          2D

 13 12  0  0  0  0  0  0  0  0999 V2000
   -2.3300    0.8124    0.0000 R   0  0  0  0  0  0  0  0  0  0  0  0
   -1.4630    1.3106    0.0000 N   0  0  0  0  0  0  0  0  0  0  0  0
   -1.4608    2.3106    0.0000 C   0  0  0  0  0  0  0  0  0  0  0  0
   -0.5980    0.8088    0.0000 C   0  0  0  0  0  0  0  0  0  0  0  0
   -0.6000   -0.1910    0.0000 C   0  0  0  0  0  0  0  0  0  0  0  0
    0.2650   -0.6928    0.0000 C   0  0  0  0  0  0  0  0  0  0  0  0
    0.2630   -1.6928    0.0000 C   0  0  0  0  0  0  0  0  0  0  0  0
    1.1280   -2.1944    0.0000 N   0  0  0  0  0  0  0  0  0  0  0  0
    1.1260   -3.1944    0.0000 R   0  0  0  0  0  0  0  0  0  0  0  0
    1.9952   -1.6962    0.0000 R   0  0  0  0  0  0  0  0  0  0  0  0
    0.2692    1.3072    0.0000 C   0  0  0  0  0  0  0  0  0  0  0  0
    1.1342    0.8054    0.0000 R   0  0  0  0  0  0  0  0  0  0  0  0
    0.2712    2.3072    0.0000 O   0  0  0  0  0  0  0  0  0  0  0  0
  1  2  1  0
  2  3  1  0
  2  4  1  0
  4  5  1  1
  5  6  1  0
  6  7  1  0
  7  8  1  0
  8  9  1  0
  8 10  1  0
  4 11  1  0
 11 12  1  0
 11 13  2  0
M  ISO  4   1   1   9   3  10   4  12   2
V    1 *
V    9 *
V   10 *
V   12 *
M  END
>  <symbol>  (743) 
D_meOrn

>  <m_Rgroups>  (743) 
[H],[OH],[H],[H],None,None

>  <m_abbr>  (743) 
D_meOrn

>  <m_name>  (743) 
NMe-D-ornithine

>  <m_type>  (743) 
aa

>  <m_subtype>  (743) 
modified

>  <m_chem_types>  (743) 
1:backbone_n,2:backbone_c,3:amine_primary,4:amine_secondary

$$$$

     RDKit          2D

 12 11  0  0  0  0  0  0  0  0999 V2000
   -2.0195    0.5873    0.0000 R   0  0  0  0  0  0  0  0  0  0  0  0
   -1.1525    1.0857    0.0000 N   0  0  0  0  0  0  0  0  0  0  0  0
   -1.1505    2.0855    0.0000 C   0  0  0  0  0  0  0  0  0  0  0  0
   -0.2875    0.5839    0.0000 C   0  0  0  0  0  0  0  0  0  0  0  0
   -0.2895   -0.4161    0.0000 C   0  0  0  0  0  0  0  0  0  0  0  0
    0.5755   -0.9177    0.0000 C   0  0  0  0  0  0  0  0  0  0  0  0
    0.5735   -1.9177    0.0000 N   0  0  0  0  0  0  0  0  0  0  0  0
    1.4385   -2.4195    0.0000 R   0  0  0  0  0  0  0  0  0  0  0  0
   -0.2935   -2.4161    0.0000 R   0  0  0  0  0  0  0  0  0  0  0  0
    0.5795    1.0821    0.0000 C   0  0  0  0  0  0  0  0  0  0  0  0
    1.4445    0.5805    0.0000 R   0  0  0  0  0  0  0  0  0  0  0  0
    0.5815    2.0821    0.0000 O   0  0  0  0  0  0  0  0  0  0  0  0
  1  2  1  0
  2  3  1  0
  2  4  1  0
  4  5  1  6
  5  6  1  0
  6  7  1  0
  7  8  1  0
  7  9  1  0
  4 10  1  0
 10 11  1  0
 10 12  2  0
M  ISO  4   1   1   8   3   9   4  11   2
V    1 *
V    8 *
V    9 *
V   11 *
M  END
>  <symbol>  (744) 
meDab

>  <m_Rgroups>  (744) 
[H],[OH],[H],[H],None,None

>  <m_abbr>  (744) 
meDab

>  <m_name>  (744) 
NMe-L-2,4-diaminobutyric acid

>  <m_type>  (744) 
aa

>  <m_subtype>  (744) 
modified

>  <m_chem_types>  (744) 
1:backbone_n,2:backbone_c,3:amine_primary,4:amine_secondary

$$$$

     RDKit          2D

 12 11  0  0  0  0  0  0  0  0999 V2000
   -2.0195    0.5873    0.0000 R   0  0  0  0  0  0  0  0  0  0  0  0
   -1.1525    1.0857    0.0000 N   0  0  0  0  0  0  0  0  0  0  0  0
   -1.1505    2.0855    0.0000 C   0  0  0  0  0  0  0  0  0  0  0  0
   -0.2875    0.5839    0.0000 C   0  0  0  0  0  0  0  0  0  0  0  0
   -0.2895   -0.4161    0.0000 C   0  0  0  0  0  0  0  0  0  0  0  0
    0.5755   -0.9177    0.0000 C   0  0  0  0  0  0  0  0  0  0  0  0
    0.5735   -1.9177    0.0000 N   0  0  0  0  0  0  0  0  0  0  0  0
    1.4385   -2.4195    0.0000 R   0  0  0  0  0  0  0  0  0  0  0  0
   -0.2935   -2.4161    0.0000 R   0  0  0  0  0  0  0  0  0  0  0  0
    0.5795    1.0821    0.0000 C   0  0  0  0  0  0  0  0  0  0  0  0
    1.4445    0.5805    0.0000 R   0  0  0  0  0  0  0  0  0  0  0  0
    0.5815    2.0821    0.0000 O   0  0  0  0  0  0  0  0  0  0  0  0
  1  2  1  0
  2  3  1  0
  2  4  1  0
  4  5  1  1
  5  6  1  0
  6  7  1  0
  7  8  1  0
  7  9  1  0
  4 10  1  0
 10 11  1  0
 10 12  2  0
M  ISO  4   1   1   8   3   9   4  11   2
V    1 *
V    8 *
V    9 *
V   11 *
M  END
>  <symbol>  (745) 
D_meDab

>  <m_Rgroups>  (745) 
[H],[OH],[H],[H],None,None

>  <m_abbr>  (745) 
D_meDab

>  <m_name>  (745) 
NMe-D-2,4-diaminobutyric acid

>  <m_type>  (745) 
aa

>  <m_subtype>  (745) 
modified

>  <m_chem_types>  (745) 
1:backbone_n,2:backbone_c,3:amine_primary,4:amine_secondary

$$$$

     RDKit          2D

 11 10  0  0  0  0  0  0  0  0999 V2000
   -2.0465    0.1859    0.0000 R   0  0  0  0  0  0  0  0  0  0  0  0
   -1.1795    0.6841    0.0000 N   0  0  0  0  0  0  0  0  0  0  0  0
   -1.1775    1.6841    0.0000 C   0  0  0  0  0  0  0  0  0  0  0  0
   -0.3145    0.1825    0.0000 C   0  0  0  0  0  0  0  0  0  0  0  0
   -0.3165   -0.8175    0.0000 C   0  0  0  0  0  0  0  0  0  0  0  0
    0.5485   -1.3193    0.0000 N   0  0  0  0  0  0  0  0  0  0  0  0
    0.5465   -2.3193    0.0000 R   0  0  0  0  0  0  0  0  0  0  0  0
    1.4155   -0.8209    0.0000 R   0  0  0  0  0  0  0  0  0  0  0  0
    0.5525    0.6807    0.0000 C   0  0  0  0  0  0  0  0  0  0  0  0
    1.4175    0.1789    0.0000 R   0  0  0  0  0  0  0  0  0  0  0  0
    0.5545    1.6807    0.0000 O   0  0  0  0  0  0  0  0  0  0  0  0
  1  2  1  0
  2  3  1  0
  2  4  1  0
  4  5  1  6
  5  6  1  0
  6  7  1  0
  6  8  1  0
  4  9  1  0
  9 10  1  0
  9 11  2  0
M  ISO  4   1   1   7   3   8   4  10   2
V    1 *
V    7 *
V    8 *
V   10 *
M  END
>  <symbol>  (746) 
meDap

>  <m_Rgroups>  (746) 
[H],[OH],[H],[H],None,None

>  <m_abbr>  (746) 
meDap

>  <m_name>  (746) 
NMe-L-2,3-diaminopropionic acid

>  <m_type>  (746) 
aa

>  <m_subtype>  (746) 
modified

>  <m_chem_types>  (746) 
1:backbone_n,2:backbone_c,3:amine_primary,4:amine_secondary

$$$$

     RDKit          2D

 11 10  0  0  0  0  0  0  0  0999 V2000
   -2.0465    0.1859    0.0000 R   0  0  0  0  0  0  0  0  0  0  0  0
   -1.1795    0.6841    0.0000 N   0  0  0  0  0  0  0  0  0  0  0  0
   -1.1775    1.6841    0.0000 C   0  0  0  0  0  0  0  0  0  0  0  0
   -0.3145    0.1825    0.0000 C   0  0  0  0  0  0  0  0  0  0  0  0
   -0.3165   -0.8175    0.0000 C   0  0  0  0  0  0  0  0  0  0  0  0
    0.5485   -1.3193    0.0000 N   0  0  0  0  0  0  0  0  0  0  0  0
    0.5465   -2.3193    0.0000 R   0  0  0  0  0  0  0  0  0  0  0  0
    1.4155   -0.8209    0.0000 R   0  0  0  0  0  0  0  0  0  0  0  0
    0.5525    0.6807    0.0000 C   0  0  0  0  0  0  0  0  0  0  0  0
    1.4175    0.1789    0.0000 R   0  0  0  0  0  0  0  0  0  0  0  0
    0.5545    1.6807    0.0000 O   0  0  0  0  0  0  0  0  0  0  0  0
  1  2  1  0
  2  3  1  0
  2  4  1  0
  4  5  1  1
  5  6  1  0
  6  7  1  0
  6  8  1  0
  4  9  1  0
  9 10  1  0
  9 11  2  0
M  ISO  4   1   1   7   3   8   4  10   2
V    1 *
V    7 *
V    8 *
V   10 *
M  END
>  <symbol>  (747) 
D_meDap

>  <m_Rgroups>  (747) 
[H],[OH],[H],[H],None,None

>  <m_abbr>  (747) 
D_meDap

>  <m_name>  (747) 
NMe-D-2,3-diaminopropionic acid

>  <m_type>  (747) 
aa

>  <m_subtype>  (747) 
modified

>  <m_chem_types>  (747) 
1:backbone_n,2:backbone_c,3:amine_primary,4:amine_secondary

$$$$

     RDKit          2D

 15 15  0  0  0  0  0  0  0  0999 V2000
   -1.0386   -0.8008    0.0000 R   0  0  0  0  0  0  0  0  0  0  0  0
   -0.1722   -1.3002    0.0000 N   0  0  0  0  0  0  0  0  0  0  0  0
   -0.1714   -2.3002    0.0000 C   0  0  0  0  0  0  0  0  0  0  0  0
    0.6934   -0.7994    0.0000 C   0  0  0  0  0  0  0  0  0  0  0  0
    0.6926    0.2006    0.0000 C   0  0  0  0  0  0  0  0  0  0  0  0
   -0.1736    0.6998    0.0000 C   0  0  0  0  0  0  0  0  0  0  0  0
   -1.0394    0.1992    0.0000 C   0  0  0  0  0  0  0  0  0  0  0  0
   -1.9058    0.6984    0.0000 C   0  0  0  0  0  0  0  0  0  0  0  0
   -1.9066    1.6986    0.0000 C   0  0  0  0  0  0  0  0  0  0  0  0
   -1.0410    2.1990    0.0000 C   0  0  0  0  0  0  0  0  0  0  0  0
   -0.1744    1.7000    0.0000 C   0  0  0  0  0  0  0  0  0  0  0  0
    0.6910    2.2006    0.0000 F   0  0  0  0  0  0  0  0  0  0  0  0
    1.5598   -1.2988    0.0000 C   0  0  0  0  0  0  0  0  0  0  0  0
    1.5606   -2.2988    0.0000 R   0  0  0  0  0  0  0  0  0  0  0  0
    2.4254   -0.7980    0.0000 O   0  0  0  0  0  0  0  0  0  0  0  0
  1  2  1  0
  2  3  1  0
  2  4  1  0
  4  5  1  1
  5  6  1  0
  6  7  2  0
  7  8  1  0
  8  9  2  0
  9 10  1  0
 10 11  2  0
 11 12  1  0
  4 13  1  0
 13 14  1  0
 13 15  2  0
 11  6  1  0
M  ISO  2   1   1  14   2
V    1 *
V   14 *
M  END
>  <symbol>  (748) 
mePhe_2F

>  <m_Rgroups>  (748) 
[H],[OH],None,None,None,None

>  <m_abbr>  (748) 
mePhe_2F

>  <m_name>  (748) 
NMe-L-2-fluorophenylalanine

>  <m_type>  (748) 
aa

>  <m_subtype>  (748) 
modified

>  <m_chem_types>  (748) 
1:backbone_n,2:backbone_c

$$$$

     RDKit          2D

 15 15  0  0  0  0  0  0  0  0999 V2000
   -1.0386   -0.8008    0.0000 R   0  0  0  0  0  0  0  0  0  0  0  0
   -0.1722   -1.3002    0.0000 N   0  0  0  0  0  0  0  0  0  0  0  0
   -0.1714   -2.3002    0.0000 C   0  0  0  0  0  0  0  0  0  0  0  0
    0.6934   -0.7994    0.0000 C   0  0  0  0  0  0  0  0  0  0  0  0
    0.6926    0.2006    0.0000 C   0  0  0  0  0  0  0  0  0  0  0  0
   -0.1736    0.6998    0.0000 C   0  0  0  0  0  0  0  0  0  0  0  0
   -1.0394    0.1992    0.0000 C   0  0  0  0  0  0  0  0  0  0  0  0
   -1.9058    0.6984    0.0000 C   0  0  0  0  0  0  0  0  0  0  0  0
   -1.9066    1.6986    0.0000 C   0  0  0  0  0  0  0  0  0  0  0  0
   -1.0410    2.1990    0.0000 C   0  0  0  0  0  0  0  0  0  0  0  0
   -0.1744    1.7000    0.0000 C   0  0  0  0  0  0  0  0  0  0  0  0
    0.6910    2.2006    0.0000 F   0  0  0  0  0  0  0  0  0  0  0  0
    1.5598   -1.2988    0.0000 C   0  0  0  0  0  0  0  0  0  0  0  0
    1.5606   -2.2988    0.0000 R   0  0  0  0  0  0  0  0  0  0  0  0
    2.4254   -0.7980    0.0000 O   0  0  0  0  0  0  0  0  0  0  0  0
  1  2  1  0
  2  3  1  0
  2  4  1  0
  4  5  1  6
  5  6  1  0
  6  7  2  0
  7  8  1  0
  8  9  2  0
  9 10  1  0
 10 11  2  0
 11 12  1  0
  4 13  1  0
 13 14  1  0
 13 15  2  0
 11  6  1  0
M  ISO  2   1   1  14   2
V    1 *
V   14 *
M  END
>  <symbol>  (749) 
D_mePhe_2F

>  <m_Rgroups>  (749) 
[H],[OH],None,None,None,None

>  <m_abbr>  (749) 
D_mePhe_2F

>  <m_name>  (749) 
NMe-D-2-fluorophenylalanine

>  <m_type>  (749) 
aa

>  <m_subtype>  (749) 
modified

>  <m_chem_types>  (749) 
1:backbone_n,2:backbone_c

$$$$

     RDKit          2D

 15 15  0  0  0  0  0  0  0  0999 V2000
   -1.0386   -0.8008    0.0000 R   0  0  0  0  0  0  0  0  0  0  0  0
   -0.1722   -1.3002    0.0000 N   0  0  0  0  0  0  0  0  0  0  0  0
   -0.1714   -2.3002    0.0000 C   0  0  0  0  0  0  0  0  0  0  0  0
    0.6934   -0.7994    0.0000 C   0  0  0  0  0  0  0  0  0  0  0  0
    0.6926    0.2006    0.0000 C   0  0  0  0  0  0  0  0  0  0  0  0
   -0.1736    0.6998    0.0000 C   0  0  0  0  0  0  0  0  0  0  0  0
   -1.0394    0.1992    0.0000 C   0  0  0  0  0  0  0  0  0  0  0  0
   -1.9058    0.6984    0.0000 C   0  0  0  0  0  0  0  0  0  0  0  0
   -1.9066    1.6986    0.0000 C   0  0  0  0  0  0  0  0  0  0  0  0
   -1.0410    2.1990    0.0000 C   0  0  0  0  0  0  0  0  0  0  0  0
   -0.1744    1.7000    0.0000 C   0  0  0  0  0  0  0  0  0  0  0  0
    0.6910    2.2006    0.0000 Cl  0  0  0  0  0  0  0  0  0  0  0  0
    1.5598   -1.2988    0.0000 C   0  0  0  0  0  0  0  0  0  0  0  0
    1.5606   -2.2988    0.0000 R   0  0  0  0  0  0  0  0  0  0  0  0
    2.4254   -0.7980    0.0000 O   0  0  0  0  0  0  0  0  0  0  0  0
  1  2  1  0
  2  3  1  0
  2  4  1  0
  4  5  1  1
  5  6  1  0
  6  7  2  0
  7  8  1  0
  8  9  2  0
  9 10  1  0
 10 11  2  0
 11 12  1  0
  4 13  1  0
 13 14  1  0
 13 15  2  0
 11  6  1  0
M  ISO  2   1   1  14   2
V    1 *
V   14 *
M  END
>  <symbol>  (750) 
mePhe_2Cl

>  <m_Rgroups>  (750) 
[H],[OH],None,None,None,None

>  <m_abbr>  (750) 
mePhe_2Cl

>  <m_name>  (750) 
NMe-L-2-chlorophenylalanine

>  <m_type>  (750) 
aa

>  <m_subtype>  (750) 
modified

>  <m_chem_types>  (750) 
1:backbone_n,2:backbone_c

$$$$

     RDKit          2D

 15 15  0  0  0  0  0  0  0  0999 V2000
   -1.0386   -0.8008    0.0000 R   0  0  0  0  0  0  0  0  0  0  0  0
   -0.1722   -1.3002    0.0000 N   0  0  0  0  0  0  0  0  0  0  0  0
   -0.1714   -2.3002    0.0000 C   0  0  0  0  0  0  0  0  0  0  0  0
    0.6934   -0.7994    0.0000 C   0  0  0  0  0  0  0  0  0  0  0  0
    0.6926    0.2006    0.0000 C   0  0  0  0  0  0  0  0  0  0  0  0
   -0.1736    0.6998    0.0000 C   0  0  0  0  0  0  0  0  0  0  0  0
   -1.0394    0.1992    0.0000 C   0  0  0  0  0  0  0  0  0  0  0  0
   -1.9058    0.6984    0.0000 C   0  0  0  0  0  0  0  0  0  0  0  0
   -1.9066    1.6986    0.0000 C   0  0  0  0  0  0  0  0  0  0  0  0
   -1.0410    2.1990    0.0000 C   0  0  0  0  0  0  0  0  0  0  0  0
   -0.1744    1.7000    0.0000 C   0  0  0  0  0  0  0  0  0  0  0  0
    0.6910    2.2006    0.0000 Cl  0  0  0  0  0  0  0  0  0  0  0  0
    1.5598   -1.2988    0.0000 C   0  0  0  0  0  0  0  0  0  0  0  0
    1.5606   -2.2988    0.0000 R   0  0  0  0  0  0  0  0  0  0  0  0
    2.4254   -0.7980    0.0000 O   0  0  0  0  0  0  0  0  0  0  0  0
  1  2  1  0
  2  3  1  0
  2  4  1  0
  4  5  1  6
  5  6  1  0
  6  7  2  0
  7  8  1  0
  8  9  2  0
  9 10  1  0
 10 11  2  0
 11 12  1  0
  4 13  1  0
 13 14  1  0
 13 15  2  0
 11  6  1  0
M  ISO  2   1   1  14   2
V    1 *
V   14 *
M  END
>  <symbol>  (751) 
D_mePhe_2Cl

>  <m_Rgroups>  (751) 
[H],[OH],None,None,None,None

>  <m_abbr>  (751) 
D_mePhe_2Cl

>  <m_name>  (751) 
NMe-D-2-chlorophenylalanine

>  <m_type>  (751) 
aa

>  <m_subtype>  (751) 
modified

>  <m_chem_types>  (751) 
1:backbone_n,2:backbone_c

$$$$

     RDKit          2D

 15 15  0  0  0  0  0  0  0  0999 V2000
   -0.8112   -0.7971    0.0000 R   0  0  0  0  0  0  0  0  0  0  0  0
    0.0530   -1.3003    0.0000 N   0  0  0  0  0  0  0  0  0  0  0  0
    0.0494   -2.3001    0.0000 C   0  0  0  0  0  0  0  0  0  0  0  0
    0.9208   -0.8033    0.0000 C   0  0  0  0  0  0  0  0  0  0  0  0
    0.9244    0.1967    0.0000 C   0  0  0  0  0  0  0  0  0  0  0  0
    0.0604    0.6997    0.0000 C   0  0  0  0  0  0  0  0  0  0  0  0
   -0.8076    0.2027    0.0000 C   0  0  0  0  0  0  0  0  0  0  0  0
   -1.6716    0.7059    0.0000 C   0  0  0  0  0  0  0  0  0  0  0  0
   -1.6682    1.7059    0.0000 C   0  0  0  0  0  0  0  0  0  0  0  0
   -2.5324    2.2091    0.0000 C   0  0  0  0  0  0  0  0  0  0  0  0
   -0.8004    2.2029    0.0000 C   0  0  0  0  0  0  0  0  0  0  0  0
    0.0638    1.6997    0.0000 C   0  0  0  0  0  0  0  0  0  0  0  0
    1.7850   -1.3065    0.0000 C   0  0  0  0  0  0  0  0  0  0  0  0
    1.7814   -2.3063    0.0000 R   0  0  0  0  0  0  0  0  0  0  0  0
    2.6528   -0.8095    0.0000 O   0  0  0  0  0  0  0  0  0  0  0  0
  1  2  1  0
  2  3  1  0
  2  4  1  0
  4  5  1  1
  5  6  1  0
  6  7  1  0
  7  8  2  0
  8  9  1  0
  9 10  1  0
  9 11  2  0
 11 12  1  0
  4 13  1  0
 13 14  1  0
 13 15  2  0
 12  6  2  0
M  ISO  2   1   1  14   2
V    1 *
V   14 *
M  END
>  <symbol>  (752) 
mePhe_4Me

>  <m_Rgroups>  (752) 
[H],[OH],None,None,None,None

>  <m_abbr>  (752) 
mePhe_4Me

>  <m_name>  (752) 
NMe-L-4-methylphenylalanine

>  <m_type>  (752) 
aa

>  <m_subtype>  (752) 
modified

>  <m_chem_types>  (752) 
1:backbone_n,2:backbone_c

$$$$

     RDKit          2D

 15 15  0  0  0  0  0  0  0  0999 V2000
   -0.8112   -0.7971    0.0000 R   0  0  0  0  0  0  0  0  0  0  0  0
    0.0530   -1.3003    0.0000 N   0  0  0  0  0  0  0  0  0  0  0  0
    0.0494   -2.3001    0.0000 C   0  0  0  0  0  0  0  0  0  0  0  0
    0.9208   -0.8033    0.0000 C   0  0  0  0  0  0  0  0  0  0  0  0
    0.9244    0.1967    0.0000 C   0  0  0  0  0  0  0  0  0  0  0  0
    0.0604    0.6997    0.0000 C   0  0  0  0  0  0  0  0  0  0  0  0
   -0.8076    0.2027    0.0000 C   0  0  0  0  0  0  0  0  0  0  0  0
   -1.6716    0.7059    0.0000 C   0  0  0  0  0  0  0  0  0  0  0  0
   -1.6682    1.7059    0.0000 C   0  0  0  0  0  0  0  0  0  0  0  0
   -2.5324    2.2091    0.0000 C   0  0  0  0  0  0  0  0  0  0  0  0
   -0.8004    2.2029    0.0000 C   0  0  0  0  0  0  0  0  0  0  0  0
    0.0638    1.6997    0.0000 C   0  0  0  0  0  0  0  0  0  0  0  0
    1.7850   -1.3065    0.0000 C   0  0  0  0  0  0  0  0  0  0  0  0
    1.7814   -2.3063    0.0000 R   0  0  0  0  0  0  0  0  0  0  0  0
    2.6528   -0.8095    0.0000 O   0  0  0  0  0  0  0  0  0  0  0  0
  1  2  1  0
  2  3  1  0
  2  4  1  0
  4  5  1  6
  5  6  1  0
  6  7  1  0
  7  8  2  0
  8  9  1  0
  9 10  1  0
  9 11  2  0
 11 12  1  0
  4 13  1  0
 13 14  1  0
 13 15  2  0
 12  6  2  0
M  ISO  2   1   1  14   2
V    1 *
V   14 *
M  END
>  <symbol>  (753) 
D_mePhe_4Me

>  <m_Rgroups>  (753) 
[H],[OH],None,None,None,None

>  <m_abbr>  (753) 
D_mePhe_4Me

>  <m_name>  (753) 
NMe-D-4-methylphenylalanine

>  <m_type>  (753) 
aa

>  <m_subtype>  (753) 
modified

>  <m_chem_types>  (753) 
1:backbone_n,2:backbone_c

$$$$

     RDKit          2D

 16 16  0  0  0  0  0  0  0  0999 V2000
   -0.5988   -0.9666    0.0000 R   0  0  0  0  0  0  0  0  0  0  0  0
    0.2654   -1.4696    0.0000 N   0  0  0  0  0  0  0  0  0  0  0  0
    0.2618   -2.4696    0.0000 C   0  0  0  0  0  0  0  0  0  0  0  0
    1.1332   -0.9728    0.0000 C   0  0  0  0  0  0  0  0  0  0  0  0
    1.1368    0.0272    0.0000 C   0  0  0  0  0  0  0  0  0  0  0  0
    0.2726    0.5302    0.0000 C   0  0  0  0  0  0  0  0  0  0  0  0
   -0.5952    0.0334    0.0000 C   0  0  0  0  0  0  0  0  0  0  0  0
   -1.4594    0.5366    0.0000 C   0  0  0  0  0  0  0  0  0  0  0  0
   -1.4560    1.5366    0.0000 C   0  0  0  0  0  0  0  0  0  0  0  0
   -2.3200    2.0396    0.0000 C   0  0  0  0  0  0  0  0  0  0  0  0
   -3.1842    2.5426    0.0000 N   0  0  0  0  0  0  0  0  0  0  0  0
   -0.5880    2.0334    0.0000 C   0  0  0  0  0  0  0  0  0  0  0  0
    0.2760    1.5302    0.0000 C   0  0  0  0  0  0  0  0  0  0  0  0
    1.9974   -1.4758    0.0000 C   0  0  0  0  0  0  0  0  0  0  0  0
    1.9938   -2.4758    0.0000 R   0  0  0  0  0  0  0  0  0  0  0  0
    2.8652   -0.9790    0.0000 O   0  0  0  0  0  0  0  0  0  0  0  0
  1  2  1  0
  2  3  1  0
  2  4  1  0
  4  5  1  1
  5  6  1  0
  6  7  1  0
  7  8  2  0
  8  9  1  0
  9 10  1  0
 10 11  3  0
  9 12  2  0
 12 13  1  0
  4 14  1  0
 14 15  1  0
 14 16  2  0
 13  6  2  0
M  ISO  2   1   1  15   2
V    1 *
V   15 *
M  END
>  <symbol>  (754) 
mePhe_4CN

>  <m_Rgroups>  (754) 
[H],[OH],None,None,None,None

>  <m_abbr>  (754) 
mePhe_4CN

>  <m_name>  (754) 
NMe-L-4-cyanophenylalanine

>  <m_type>  (754) 
aa

>  <m_subtype>  (754) 
modified

>  <m_chem_types>  (754) 
1:backbone_n,2:backbone_c

$$$$

     RDKit          2D

 16 16  0  0  0  0  0  0  0  0999 V2000
   -0.5988   -0.9666    0.0000 R   0  0  0  0  0  0  0  0  0  0  0  0
    0.2654   -1.4696    0.0000 N   0  0  0  0  0  0  0  0  0  0  0  0
    0.2618   -2.4696    0.0000 C   0  0  0  0  0  0  0  0  0  0  0  0
    1.1332   -0.9728    0.0000 C   0  0  0  0  0  0  0  0  0  0  0  0
    1.1368    0.0272    0.0000 C   0  0  0  0  0  0  0  0  0  0  0  0
    0.2726    0.5302    0.0000 C   0  0  0  0  0  0  0  0  0  0  0  0
   -0.5952    0.0334    0.0000 C   0  0  0  0  0  0  0  0  0  0  0  0
   -1.4594    0.5366    0.0000 C   0  0  0  0  0  0  0  0  0  0  0  0
   -1.4560    1.5366    0.0000 C   0  0  0  0  0  0  0  0  0  0  0  0
   -2.3200    2.0396    0.0000 C   0  0  0  0  0  0  0  0  0  0  0  0
   -3.1842    2.5426    0.0000 N   0  0  0  0  0  0  0  0  0  0  0  0
   -0.5880    2.0334    0.0000 C   0  0  0  0  0  0  0  0  0  0  0  0
    0.2760    1.5302    0.0000 C   0  0  0  0  0  0  0  0  0  0  0  0
    1.9974   -1.4758    0.0000 C   0  0  0  0  0  0  0  0  0  0  0  0
    1.9938   -2.4758    0.0000 R   0  0  0  0  0  0  0  0  0  0  0  0
    2.8652   -0.9790    0.0000 O   0  0  0  0  0  0  0  0  0  0  0  0
  1  2  1  0
  2  3  1  0
  2  4  1  0
  4  5  1  6
  5  6  1  0
  6  7  1  0
  7  8  2  0
  8  9  1  0
  9 10  1  0
 10 11  3  0
  9 12  2  0
 12 13  1  0
  4 14  1  0
 14 15  1  0
 14 16  2  0
 13  6  2  0
M  ISO  2   1   1  15   2
V    1 *
V   15 *
M  END
>  <symbol>  (755) 
D_mePhe_4CN

>  <m_Rgroups>  (755) 
[H],[OH],None,None,None,None

>  <m_abbr>  (755) 
D_mePhe_4CN

>  <m_name>  (755) 
NMe-D-4-cyanophenylalanine

>  <m_type>  (755) 
aa

>  <m_subtype>  (755) 
modified

>  <m_chem_types>  (755) 
1:backbone_n,2:backbone_c

$$$$

     RDKit          2D

 17 17  0  0  0  0  0  0  0  0999 V2000
   -0.4624   -1.0866    0.0000 R   0  0  0  0  0  0  0  0  0  0  0  0
    0.4018   -1.5896    0.0000 N   0  0  0  0  0  0  0  0  0  0  0  0
    0.3982   -2.5896    0.0000 C   0  0  0  0  0  0  0  0  0  0  0  0
    1.2696   -1.0928    0.0000 C   0  0  0  0  0  0  0  0  0  0  0  0
    1.2732   -0.0928    0.0000 C   0  0  0  0  0  0  0  0  0  0  0  0
    0.4090    0.4102    0.0000 C   0  0  0  0  0  0  0  0  0  0  0  0
   -0.4588   -0.0866    0.0000 C   0  0  0  0  0  0  0  0  0  0  0  0
   -1.3230    0.4166    0.0000 C   0  0  0  0  0  0  0  0  0  0  0  0
   -1.3194    1.4164    0.0000 C   0  0  0  0  0  0  0  0  0  0  0  0
   -2.1836    1.9196    0.0000 N   0  0  0  0  0  0  0  0  0  0  0  0
   -3.0514    1.4226    0.0000 O   0  0  0  0  0  0  0  0  0  0  0  0
   -2.1800    2.9196    0.0000 O   0  0  0  0  0  0  0  0  0  0  0  0
   -0.4516    1.9134    0.0000 C   0  0  0  0  0  0  0  0  0  0  0  0
    0.4126    1.4102    0.0000 C   0  0  0  0  0  0  0  0  0  0  0  0
    2.1338   -1.5958    0.0000 C   0  0  0  0  0  0  0  0  0  0  0  0
    2.1302   -2.5958    0.0000 R   0  0  0  0  0  0  0  0  0  0  0  0
    3.0016   -1.0990    0.0000 O   0  0  0  0  0  0  0  0  0  0  0  0
  1  2  1  0
  2  3  1  0
  2  4  1  0
  4  5  1  1
  5  6  1  0
  6  7  1  0
  7  8  2  0
  8  9  1  0
  9 10  1  0
 10 11  2  0
 10 12  1  0
  9 13  2  0
 13 14  1  0
  4 15  1  0
 15 16  1  0
 15 17  2  0
 14  6  2  0
M  CHG  2  10   1  12  -1
M  ISO  2   1   1  16   2
V    1 *
V   16 *
M  END
>  <symbol>  (756) 
mePhe_4NO2

>  <m_Rgroups>  (756) 
[H],[OH],None,None,None,None

>  <m_abbr>  (756) 
mePhe_4NO2

>  <m_name>  (756) 
NMe-L-4-nitrophenylalanine

>  <m_type>  (756) 
aa

>  <m_subtype>  (756) 
modified

>  <m_chem_types>  (756) 
1:backbone_n,2:backbone_c

$$$$

     RDKit          2D

 17 17  0  0  0  0  0  0  0  0999 V2000
   -0.4624   -1.0866    0.0000 R   0  0  0  0  0  0  0  0  0  0  0  0
    0.4018   -1.5896    0.0000 N   0  0  0  0  0  0  0  0  0  0  0  0
    0.3982   -2.5896    0.0000 C   0  0  0  0  0  0  0  0  0  0  0  0
    1.2696   -1.0928    0.0000 C   0  0  0  0  0  0  0  0  0  0  0  0
    1.2732   -0.0928    0.0000 C   0  0  0  0  0  0  0  0  0  0  0  0
    0.4090    0.4102    0.0000 C   0  0  0  0  0  0  0  0  0  0  0  0
   -0.4588   -0.0866    0.0000 C   0  0  0  0  0  0  0  0  0  0  0  0
   -1.3230    0.4166    0.0000 C   0  0  0  0  0  0  0  0  0  0  0  0
   -1.3194    1.4164    0.0000 C   0  0  0  0  0  0  0  0  0  0  0  0
   -2.1836    1.9196    0.0000 N   0  0  0  0  0  0  0  0  0  0  0  0
   -3.0514    1.4226    0.0000 O   0  0  0  0  0  0  0  0  0  0  0  0
   -2.1800    2.9196    0.0000 O   0  0  0  0  0  0  0  0  0  0  0  0
   -0.4516    1.9134    0.0000 C   0  0  0  0  0  0  0  0  0  0  0  0
    0.4126    1.4102    0.0000 C   0  0  0  0  0  0  0  0  0  0  0  0
    2.1338   -1.5958    0.0000 C   0  0  0  0  0  0  0  0  0  0  0  0
    2.1302   -2.5958    0.0000 R   0  0  0  0  0  0  0  0  0  0  0  0
    3.0016   -1.0990    0.0000 O   0  0  0  0  0  0  0  0  0  0  0  0
  1  2  1  0
  2  3  1  0
  2  4  1  0
  4  5  1  6
  5  6  1  0
  6  7  1  0
  7  8  2  0
  8  9  1  0
  9 10  1  0
 10 11  2  0
 10 12  1  0
  9 13  2  0
 13 14  1  0
  4 15  1  0
 15 16  1  0
 15 17  2  0
 14  6  2  0
M  CHG  2  10   1  12  -1
M  ISO  2   1   1  16   2
V    1 *
V   16 *
M  END
>  <symbol>  (757) 
D_mePhe_4NO2

>  <m_Rgroups>  (757) 
[H],[OH],None,None,None,None

>  <m_abbr>  (757) 
D_mePhe_4NO2

>  <m_name>  (757) 
NMe-D-4-nitrophenylalanine

>  <m_type>  (757) 
aa

>  <m_subtype>  (757) 
modified

>  <m_chem_types>  (757) 
1:backbone_n,2:backbone_c

$$$$

     RDKit          2D

 17 17  0  0  0  0  0  0  0  0999 V2000
   -3.1584    2.3389    0.0000 R   0  0  0  0  0  0  0  0  0  0  0  0
   -2.1065    1.2696    0.0000 N   0  0  0  0  0  0  0  0  0  0  0  0
   -0.6545    1.6460    0.0000 C   0  0  0  0  0  0  0  0  0  0  0  0
   -2.5066   -0.1760    0.0000 C   0  0  0  0  0  0  0  0  0  0  0  0
   -1.4547   -1.2454    0.0000 C   0  0  0  0  0  0  0  0  0  0  0  0
   -0.0026   -0.8690    0.0000 C   0  0  0  0  0  0  0  0  0  0  0  0
    0.3974    0.5766    0.0000 C   0  0  0  0  0  0  0  0  0  0  0  0
    1.8495    0.9530    0.0000 C   0  0  0  0  0  0  0  0  0  0  0  0
    2.9014   -0.1163    0.0000 C   0  0  0  0  0  0  0  0  0  0  0  0
    4.3534    0.2600    0.0000 N   0  0  0  0  0  0  0  0  0  0  0  0
    5.4054   -0.8093    0.0000 R   0  0  0  0  0  0  0  0  0  0  0  0
    4.7535    1.7057    0.0000 R   0  0  0  0  0  0  0  0  0  0  0  0
    2.5013   -1.5620    0.0000 C   0  0  0  0  0  0  0  0  0  0  0  0
    1.0493   -1.9383    0.0000 C   0  0  0  0  0  0  0  0  0  0  0  0
   -3.9586   -0.5524    0.0000 C   0  0  0  0  0  0  0  0  0  0  0  0
   -5.0106    0.5169    0.0000 R   0  0  0  0  0  0  0  0  0  0  0  0
   -4.3587   -1.9980    0.0000 O   0  0  0  0  0  0  0  0  0  0  0  0
  1  2  1  0
  2  3  1  0
  2  4  1  0
  4  5  1  1
  5  6  1  0
  6  7  1  0
  7  8  2  0
  8  9  1  0
  9 10  1  0
 10 11  1  0
 10 12  1  0
  9 13  2  0
 13 14  1  0
  4 15  1  0
 15 16  1  0
 15 17  2  0
 14  6  2  0
M  ISO  4   1   1  11   3  12   4  16   2
V    1 *
V   11 *
V   12 *
V   16 *
M  END
>  <symbol>  (758) 
mePhe_4NH2

>  <m_Rgroups>  (758) 
[H],[OH],[H],[H],None,None

>  <m_abbr>  (758) 
mePhe_4NH2

>  <m_name>  (758) 
NMe-L-4-aminophenylalanine

>  <m_type>  (758) 
aa

>  <m_subtype>  (758) 
modified

>  <m_chem_types>  (758) 
1:backbone_n,2:backbone_c

$$$$

     RDKit          2D

 17 17  0  0  0  0  0  0  0  0999 V2000
   -3.1584    2.3389    0.0000 R   0  0  0  0  0  0  0  0  0  0  0  0
   -2.1065    1.2696    0.0000 N   0  0  0  0  0  0  0  0  0  0  0  0
   -0.6545    1.6460    0.0000 C   0  0  0  0  0  0  0  0  0  0  0  0
   -2.5066   -0.1760    0.0000 C   0  0  0  0  0  0  0  0  0  0  0  0
   -1.4547   -1.2454    0.0000 C   0  0  0  0  0  0  0  0  0  0  0  0
   -0.0026   -0.8690    0.0000 C   0  0  0  0  0  0  0  0  0  0  0  0
    0.3974    0.5766    0.0000 C   0  0  0  0  0  0  0  0  0  0  0  0
    1.8495    0.9530    0.0000 C   0  0  0  0  0  0  0  0  0  0  0  0
    2.9014   -0.1163    0.0000 C   0  0  0  0  0  0  0  0  0  0  0  0
    4.3534    0.2600    0.0000 N   0  0  0  0  0  0  0  0  0  0  0  0
    5.4054   -0.8093    0.0000 R   0  0  0  0  0  0  0  0  0  0  0  0
    4.7535    1.7057    0.0000 R   0  0  0  0  0  0  0  0  0  0  0  0
    2.5013   -1.5620    0.0000 C   0  0  0  0  0  0  0  0  0  0  0  0
    1.0493   -1.9383    0.0000 C   0  0  0  0  0  0  0  0  0  0  0  0
   -3.9586   -0.5524    0.0000 C   0  0  0  0  0  0  0  0  0  0  0  0
   -5.0106    0.5169    0.0000 R   0  0  0  0  0  0  0  0  0  0  0  0
   -4.3587   -1.9980    0.0000 O   0  0  0  0  0  0  0  0  0  0  0  0
  1  2  1  0
  2  3  1  0
  2  4  1  0
  4  5  1  6
  5  6  1  0
  6  7  1  0
  7  8  2  0
  8  9  1  0
  9 10  1  0
 10 11  1  0
 10 12  1  0
  9 13  2  0
 13 14  1  0
  4 15  1  0
 15 16  1  0
 15 17  2  0
 14  6  2  0
M  ISO  4   1   1  11   3  12   4  16   2
V    1 *
V   11 *
V   12 *
V   16 *
M  END
>  <symbol>  (759) 
D_mePhe_4NH2

>  <m_Rgroups>  (759) 
[H],[OH],[H],[H],None,None

>  <m_abbr>  (759) 
D_mePhe_4NH2

>  <m_name>  (759) 
NMe-D-4-aminophenylalanine

>  <m_type>  (759) 
aa

>  <m_subtype>  (759) 
modified

>  <m_chem_types>  (759) 
1:backbone_n,2:backbone_c

$$$$

     RDKit          2D

 16 16  0  0  0  0  0  0  0  0999 V2000
   -0.6531   -0.9977    0.0000 R   0  0  0  0  0  0  0  0  0  0  0  0
    0.2111   -1.5007    0.0000 N   0  0  0  0  0  0  0  0  0  0  0  0
    0.2075   -2.5007    0.0000 C   0  0  0  0  0  0  0  0  0  0  0  0
    1.0789   -1.0039    0.0000 C   0  0  0  0  0  0  0  0  0  0  0  0
    1.0825   -0.0039    0.0000 C   0  0  0  0  0  0  0  0  0  0  0  0
    0.2183    0.4991    0.0000 C   0  0  0  0  0  0  0  0  0  0  0  0
   -0.6495    0.0023    0.0000 C   0  0  0  0  0  0  0  0  0  0  0  0
   -1.5137    0.5055    0.0000 C   0  0  0  0  0  0  0  0  0  0  0  0
   -1.5101    1.5053    0.0000 C   0  0  0  0  0  0  0  0  0  0  0  0
   -2.3743    2.0085    0.0000 S   0  0  0  0  0  0  0  0  0  0  0  0
   -2.3707    3.0085    0.0000 C   0  0  0  0  0  0  0  0  0  0  0  0
   -0.6423    2.0023    0.0000 C   0  0  0  0  0  0  0  0  0  0  0  0
    0.2219    1.4991    0.0000 C   0  0  0  0  0  0  0  0  0  0  0  0
    1.9431   -1.5069    0.0000 C   0  0  0  0  0  0  0  0  0  0  0  0
    1.9395   -2.5069    0.0000 R   0  0  0  0  0  0  0  0  0  0  0  0
    2.8109   -1.0101    0.0000 O   0  0  0  0  0  0  0  0  0  0  0  0
  1  2  1  0
  2  3  1  0
  2  4  1  0
  4  5  1  1
  5  6  1  0
  6  7  1  0
  7  8  2  0
  8  9  1  0
  9 10  1  0
 10 11  1  0
  9 12  2  0
 12 13  1  0
  4 14  1  0
 14 15  1  0
 14 16  2  0
 13  6  2  0
M  ISO  2   1   1  15   2
V    1 *
V   15 *
M  END
>  <symbol>  (760) 
mePhe_4SMe

>  <m_Rgroups>  (760) 
[H],[OH],None,None,None,None

>  <m_abbr>  (760) 
mePhe_4SMe

>  <m_name>  (760) 
NMe-L-4-(methylthio)phenylalanine

>  <m_type>  (760) 
aa

>  <m_subtype>  (760) 
modified

>  <m_chem_types>  (760) 
1:backbone_n,2:backbone_c

$$$$

     RDKit          2D

 16 16  0  0  0  0  0  0  0  0999 V2000
   -0.6531   -0.9977    0.0000 R   0  0  0  0  0  0  0  0  0  0  0  0
    0.2111   -1.5007    0.0000 N   0  0  0  0  0  0  0  0  0  0  0  0
    0.2075   -2.5007    0.0000 C   0  0  0  0  0  0  0  0  0  0  0  0
    1.0789   -1.0039    0.0000 C   0  0  0  0  0  0  0  0  0  0  0  0
    1.0825   -0.0039    0.0000 C   0  0  0  0  0  0  0  0  0  0  0  0
    0.2183    0.4991    0.0000 C   0  0  0  0  0  0  0  0  0  0  0  0
   -0.6495    0.0023    0.0000 C   0  0  0  0  0  0  0  0  0  0  0  0
   -1.5137    0.5055    0.0000 C   0  0  0  0  0  0  0  0  0  0  0  0
   -1.5101    1.5053    0.0000 C   0  0  0  0  0  0  0  0  0  0  0  0
   -2.3743    2.0085    0.0000 S   0  0  0  0  0  0  0  0  0  0  0  0
   -2.3707    3.0085    0.0000 C   0  0  0  0  0  0  0  0  0  0  0  0
   -0.6423    2.0023    0.0000 C   0  0  0  0  0  0  0  0  0  0  0  0
    0.2219    1.4991    0.0000 C   0  0  0  0  0  0  0  0  0  0  0  0
    1.9431   -1.5069    0.0000 C   0  0  0  0  0  0  0  0  0  0  0  0
    1.9395   -2.5069    0.0000 R   0  0  0  0  0  0  0  0  0  0  0  0
    2.8109   -1.0101    0.0000 O   0  0  0  0  0  0  0  0  0  0  0  0
  1  2  1  0
  2  3  1  0
  2  4  1  0
  4  5  1  6
  5  6  1  0
  6  7  1  0
  7  8  2  0
  8  9  1  0
  9 10  1  0
 10 11  1  0
  9 12  2  0
 12 13  1  0
  4 14  1  0
 14 15  1  0
 14 16  2  0
 13  6  2  0
M  ISO  2   1   1  15   2
V    1 *
V   15 *
M  END
>  <symbol>  (761) 
D_mePhe_4SMe

>  <m_Rgroups>  (761) 
[H],[OH],None,None,None,None

>  <m_abbr>  (761) 
D_mePhe_4SMe

>  <m_name>  (761) 
NMe-D-4-(methylthio)phenylalanine

>  <m_type>  (761) 
aa

>  <m_subtype>  (761) 
modified

>  <m_chem_types>  (761) 
1:backbone_n,2:backbone_c

$$$$

     RDKit          2D

 15 15  0  0  0  0  0  0  0  0999 V2000
   -0.8112   -0.7971    0.0000 R   0  0  0  0  0  0  0  0  0  0  0  0
    0.0530   -1.3003    0.0000 N   0  0  0  0  0  0  0  0  0  0  0  0
    0.0494   -2.3001    0.0000 C   0  0  0  0  0  0  0  0  0  0  0  0
    0.9208   -0.8033    0.0000 C   0  0  0  0  0  0  0  0  0  0  0  0
    0.9244    0.1967    0.0000 C   0  0  0  0  0  0  0  0  0  0  0  0
    0.0604    0.6997    0.0000 C   0  0  0  0  0  0  0  0  0  0  0  0
   -0.8076    0.2027    0.0000 C   0  0  0  0  0  0  0  0  0  0  0  0
   -1.6716    0.7059    0.0000 C   0  0  0  0  0  0  0  0  0  0  0  0
   -1.6682    1.7059    0.0000 C   0  0  0  0  0  0  0  0  0  0  0  0
   -2.5324    2.2091    0.0000 I   0  0  0  0  0  0  0  0  0  0  0  0
   -0.8004    2.2029    0.0000 C   0  0  0  0  0  0  0  0  0  0  0  0
    0.0638    1.6997    0.0000 C   0  0  0  0  0  0  0  0  0  0  0  0
    1.7850   -1.3065    0.0000 C   0  0  0  0  0  0  0  0  0  0  0  0
    1.7814   -2.3063    0.0000 R   0  0  0  0  0  0  0  0  0  0  0  0
    2.6528   -0.8095    0.0000 O   0  0  0  0  0  0  0  0  0  0  0  0
  1  2  1  0
  2  3  1  0
  2  4  1  0
  4  5  1  1
  5  6  1  0
  6  7  1  0
  7  8  2  0
  8  9  1  0
  9 10  1  0
  9 11  2  0
 11 12  1  0
  4 13  1  0
 13 14  1  0
 13 15  2  0
 12  6  2  0
M  ISO  2   1   1  14   2
V    1 *
V   14 *
M  END
>  <symbol>  (762) 
mePhe_4I

>  <m_Rgroups>  (762) 
[H],[OH],None,None,None,None

>  <m_abbr>  (762) 
mePhe_4I

>  <m_name>  (762) 
NMe-L-4-iodophenylalanine

>  <m_type>  (762) 
aa

>  <m_subtype>  (762) 
modified

>  <m_chem_types>  (762) 
1:backbone_n,2:backbone_c

$$$$

     RDKit          2D

 15 15  0  0  0  0  0  0  0  0999 V2000
   -0.8112   -0.7971    0.0000 R   0  0  0  0  0  0  0  0  0  0  0  0
    0.0530   -1.3003    0.0000 N   0  0  0  0  0  0  0  0  0  0  0  0
    0.0494   -2.3001    0.0000 C   0  0  0  0  0  0  0  0  0  0  0  0
    0.9208   -0.8033    0.0000 C   0  0  0  0  0  0  0  0  0  0  0  0
    0.9244    0.1967    0.0000 C   0  0  0  0  0  0  0  0  0  0  0  0
    0.0604    0.6997    0.0000 C   0  0  0  0  0  0  0  0  0  0  0  0
   -0.8076    0.2027    0.0000 C   0  0  0  0  0  0  0  0  0  0  0  0
   -1.6716    0.7059    0.0000 C   0  0  0  0  0  0  0  0  0  0  0  0
   -1.6682    1.7059    0.0000 C   0  0  0  0  0  0  0  0  0  0  0  0
   -2.5324    2.2091    0.0000 I   0  0  0  0  0  0  0  0  0  0  0  0
   -0.8004    2.2029    0.0000 C   0  0  0  0  0  0  0  0  0  0  0  0
    0.0638    1.6997    0.0000 C   0  0  0  0  0  0  0  0  0  0  0  0
    1.7850   -1.3065    0.0000 C   0  0  0  0  0  0  0  0  0  0  0  0
    1.7814   -2.3063    0.0000 R   0  0  0  0  0  0  0  0  0  0  0  0
    2.6528   -0.8095    0.0000 O   0  0  0  0  0  0  0  0  0  0  0  0
  1  2  1  0
  2  3  1  0
  2  4  1  0
  4  5  1  6
  5  6  1  0
  6  7  1  0
  7  8  2  0
  8  9  1  0
  9 10  1  0
  9 11  2  0
 11 12  1  0
  4 13  1  0
 13 14  1  0
 13 15  2  0
 12  6  2  0
M  ISO  2   1   1  14   2
V    1 *
V   14 *
M  END
>  <symbol>  (763) 
D_mePhe_4I

>  <m_Rgroups>  (763) 
[H],[OH],None,None,None,None

>  <m_abbr>  (763) 
D_mePhe_4I

>  <m_name>  (763) 
NMe-D-4-iodophenylalanine

>  <m_type>  (763) 
aa

>  <m_subtype>  (763) 
modified

>  <m_chem_types>  (763) 
1:backbone_n,2:backbone_c

$$$$

     RDKit          2D

 16 16  0  0  0  0  0  0  0  0999 V2000
   -3.0766    2.1502    0.0000 R   0  0  0  0  0  0  0  0  0  0  0  0
   -1.8854    1.2385    0.0000 N   0  0  0  0  0  0  0  0  0  0  0  0
   -0.5003    1.8143    0.0000 C   0  0  0  0  0  0  0  0  0  0  0  0
   -2.0794   -0.2489    0.0000 C   0  0  0  0  0  0  0  0  0  0  0  0
   -0.8882   -1.1605    0.0000 C   0  0  0  0  0  0  0  0  0  0  0  0
    0.4969   -0.5848    0.0000 C   0  0  0  0  0  0  0  0  0  0  0  0
    0.6908    0.9026    0.0000 C   0  0  0  0  0  0  0  0  0  0  0  0
    2.0759    1.4784    0.0000 C   0  0  0  0  0  0  0  0  0  0  0  0
    3.2671    0.5667    0.0000 C   0  0  0  0  0  0  0  0  0  0  0  0
    4.6522    1.1425    0.0000 F   0  0  0  0  0  0  0  0  0  0  0  0
    3.0732   -0.9207    0.0000 C   0  0  0  0  0  0  0  0  0  0  0  0
    4.2643   -1.8323    0.0000 F   0  0  0  0  0  0  0  0  0  0  0  0
    1.6881   -1.4964    0.0000 C   0  0  0  0  0  0  0  0  0  0  0  0
   -3.4645   -0.8246    0.0000 C   0  0  0  0  0  0  0  0  0  0  0  0
   -4.6556    0.0870    0.0000 R   0  0  0  0  0  0  0  0  0  0  0  0
   -3.6584   -2.3121    0.0000 O   0  0  0  0  0  0  0  0  0  0  0  0
  1  2  1  0
  2  3  1  0
  2  4  1  0
  4  5  1  1
  5  6  1  0
  6  7  1  0
  7  8  2  0
  8  9  1  0
  9 10  1  0
  9 11  2  0
 11 12  1  0
 11 13  1  0
  4 14  1  0
 14 15  1  0
 14 16  2  0
 13  6  2  0
M  ISO  2   1   1  15   2
V    1 *
V   15 *
M  END
>  <symbol>  (764) 
mePhe_34diF

>  <m_Rgroups>  (764) 
[H],[OH],None,None,None,None

>  <m_abbr>  (764) 
mePhe_34diF

>  <m_name>  (764) 
NMe-L-3,4-difluorophenylalanine

>  <m_type>  (764) 
aa

>  <m_subtype>  (764) 
modified

>  <m_chem_types>  (764) 
1:backbone_n,2:backbone_c

$$$$

     RDKit          2D

 16 16  0  0  0  0  0  0  0  0999 V2000
   -3.0766    2.1502    0.0000 R   0  0  0  0  0  0  0  0  0  0  0  0
   -1.8854    1.2385    0.0000 N   0  0  0  0  0  0  0  0  0  0  0  0
   -0.5003    1.8143    0.0000 C   0  0  0  0  0  0  0  0  0  0  0  0
   -2.0794   -0.2489    0.0000 C   0  0  0  0  0  0  0  0  0  0  0  0
   -0.8882   -1.1605    0.0000 C   0  0  0  0  0  0  0  0  0  0  0  0
    0.4969   -0.5848    0.0000 C   0  0  0  0  0  0  0  0  0  0  0  0
    0.6908    0.9026    0.0000 C   0  0  0  0  0  0  0  0  0  0  0  0
    2.0759    1.4784    0.0000 C   0  0  0  0  0  0  0  0  0  0  0  0
    3.2671    0.5667    0.0000 C   0  0  0  0  0  0  0  0  0  0  0  0
    4.6522    1.1425    0.0000 F   0  0  0  0  0  0  0  0  0  0  0  0
    3.0732   -0.9207    0.0000 C   0  0  0  0  0  0  0  0  0  0  0  0
    4.2643   -1.8323    0.0000 F   0  0  0  0  0  0  0  0  0  0  0  0
    1.6881   -1.4964    0.0000 C   0  0  0  0  0  0  0  0  0  0  0  0
   -3.4645   -0.8246    0.0000 C   0  0  0  0  0  0  0  0  0  0  0  0
   -4.6556    0.0870    0.0000 R   0  0  0  0  0  0  0  0  0  0  0  0
   -3.6584   -2.3121    0.0000 O   0  0  0  0  0  0  0  0  0  0  0  0
  1  2  1  0
  2  3  1  0
  2  4  1  0
  4  5  1  6
  5  6  1  0
  6  7  1  0
  7  8  2  0
  8  9  1  0
  9 10  1  0
  9 11  2  0
 11 12  1  0
 11 13  1  0
  4 14  1  0
 14 15  1  0
 14 16  2  0
 13  6  2  0
M  ISO  2   1   1  15   2
V    1 *
V   15 *
M  END
>  <symbol>  (765) 
D_mePhe_34diF

>  <m_Rgroups>  (765) 
[H],[OH],None,None,None,None

>  <m_abbr>  (765) 
D_mePhe_34diF

>  <m_name>  (765) 
NMe-D-3,4-difluorophenylalanine

>  <m_type>  (765) 
aa

>  <m_subtype>  (765) 
modified

>  <m_chem_types>  (765) 
1:backbone_n,2:backbone_c

$$$$

     RDKit          2D

 19 20  0  0  0  0  0  0  0  0999 V2000
   -0.7796   -1.5358    0.0000 R   0  0  0  0  0  0  0  0  0  0  0  0
    0.0862   -2.0360    0.0000 N   0  0  0  0  0  0  0  0  0  0  0  0
    0.0858   -3.0358    0.0000 C   0  0  0  0  0  0  0  0  0  0  0  0
    0.9524   -1.5364    0.0000 C   0  0  0  0  0  0  0  0  0  0  0  0
    0.9528   -0.5364    0.0000 C   0  0  0  0  0  0  0  0  0  0  0  0
    0.0872   -0.0360    0.0000 C   0  0  0  0  0  0  0  0  0  0  0  0
   -0.8266   -0.4420    0.0000 C   0  0  0  0  0  0  0  0  0  0  0  0
   -1.4954    0.3012    0.0000 N   0  0  0  0  0  0  0  0  0  0  0  0
   -2.4898    0.1974    0.0000 R   0  0  0  0  0  0  0  0  0  0  0  0
   -0.9948    1.1672    0.0000 C   0  0  0  0  0  0  0  0  0  0  0  0
   -1.3032    2.1184    0.0000 C   0  0  0  0  0  0  0  0  0  0  0  0
   -0.6338    2.8612    0.0000 C   0  0  0  0  0  0  0  0  0  0  0  0
   -0.9422    3.8122    0.0000 Br  0  0  0  0  0  0  0  0  0  0  0  0
    0.3444    2.6526    0.0000 C   0  0  0  0  0  0  0  0  0  0  0  0
    0.6526    1.7014    0.0000 C   0  0  0  0  0  0  0  0  0  0  0  0
   -0.0168    0.9586    0.0000 C   0  0  0  0  0  0  0  0  0  0  0  0
    1.8180   -2.0368    0.0000 C   0  0  0  0  0  0  0  0  0  0  0  0
    1.8176   -3.0370    0.0000 R   0  0  0  0  0  0  0  0  0  0  0  0
    2.6844   -1.5372    0.0000 O   0  0  0  0  0  0  0  0  0  0  0  0
  1  2  1  0
  2  3  1  0
  2  4  1  0
  4  5  1  1
  5  6  1  0
  6  7  2  0
  7  8  1  0
  8  9  1  0
  8 10  1  0
 10 11  1  0
 11 12  2  0
 12 13  1  0
 12 14  1  0
 14 15  2  0
 15 16  1  0
  4 17  1  0
 17 18  1  0
 17 19  2  0
 16  6  1  0
 16 10  2  0
M  ISO  3   1   1   9   3  18   2
V    1 *
V    9 *
V   18 *
M  END
>  <symbol>  (766) 
meTrp_5Br

>  <m_Rgroups>  (766) 
[H],[OH],[H],None,None,None

>  <m_abbr>  (766) 
meTrp_5Br

>  <m_name>  (766) 
NMe-L-5-bromotryptophan

>  <m_type>  (766) 
aa

>  <m_subtype>  (766) 
modified

>  <m_chem_types>  (766) 
1:backbone_n,2:backbone_c,3:aromatic_nh

$$$$

     RDKit          2D

 19 20  0  0  0  0  0  0  0  0999 V2000
   -0.7796   -1.5358    0.0000 R   0  0  0  0  0  0  0  0  0  0  0  0
    0.0862   -2.0360    0.0000 N   0  0  0  0  0  0  0  0  0  0  0  0
    0.0858   -3.0358    0.0000 C   0  0  0  0  0  0  0  0  0  0  0  0
    0.9524   -1.5364    0.0000 C   0  0  0  0  0  0  0  0  0  0  0  0
    0.9528   -0.5364    0.0000 C   0  0  0  0  0  0  0  0  0  0  0  0
    0.0872   -0.0360    0.0000 C   0  0  0  0  0  0  0  0  0  0  0  0
   -0.8266   -0.4420    0.0000 C   0  0  0  0  0  0  0  0  0  0  0  0
   -1.4954    0.3012    0.0000 N   0  0  0  0  0  0  0  0  0  0  0  0
   -2.4898    0.1974    0.0000 R   0  0  0  0  0  0  0  0  0  0  0  0
   -0.9948    1.1672    0.0000 C   0  0  0  0  0  0  0  0  0  0  0  0
   -1.3032    2.1184    0.0000 C   0  0  0  0  0  0  0  0  0  0  0  0
   -0.6338    2.8612    0.0000 C   0  0  0  0  0  0  0  0  0  0  0  0
   -0.9422    3.8122    0.0000 Br  0  0  0  0  0  0  0  0  0  0  0  0
    0.3444    2.6526    0.0000 C   0  0  0  0  0  0  0  0  0  0  0  0
    0.6526    1.7014    0.0000 C   0  0  0  0  0  0  0  0  0  0  0  0
   -0.0168    0.9586    0.0000 C   0  0  0  0  0  0  0  0  0  0  0  0
    1.8180   -2.0368    0.0000 C   0  0  0  0  0  0  0  0  0  0  0  0
    1.8176   -3.0370    0.0000 R   0  0  0  0  0  0  0  0  0  0  0  0
    2.6844   -1.5372    0.0000 O   0  0  0  0  0  0  0  0  0  0  0  0
  1  2  1  0
  2  3  1  0
  2  4  1  0
  4  5  1  6
  5  6  1  0
  6  7  2  0
  7  8  1  0
  8  9  1  0
  8 10  1  0
 10 11  1  0
 11 12  2  0
 12 13  1  0
 12 14  1  0
 14 15  2  0
 15 16  1  0
  4 17  1  0
 17 18  1  0
 17 19  2  0
 16  6  1  0
 16 10  2  0
M  ISO  3   1   1   9   3  18   2
V    1 *
V    9 *
V   18 *
M  END
>  <symbol>  (767) 
D_meTrp_5Br

>  <m_Rgroups>  (767) 
[H],[OH],[H],None,None,None

>  <m_abbr>  (767) 
D_meTrp_5Br

>  <m_name>  (767) 
NMe-D-5-bromotryptophan

>  <m_type>  (767) 
aa

>  <m_subtype>  (767) 
modified

>  <m_chem_types>  (767) 
1:backbone_n,2:backbone_c,3:aromatic_nh

$$$$

     RDKit          2D

 17 17  0  0  0  0  0  0  0  0999 V2000
   -2.5462   -1.0019    0.0000 R   0  0  0  0  0  0  0  0  0  0  0  0
   -1.6798   -1.5013    0.0000 N   0  0  0  0  0  0  0  0  0  0  0  0
   -1.6790   -2.5013    0.0000 C   0  0  0  0  0  0  0  0  0  0  0  0
   -0.8142   -1.0007    0.0000 C   0  0  0  0  0  0  0  0  0  0  0  0
   -0.8150   -0.0007    0.0000 C   0  0  0  0  0  0  0  0  0  0  0  0
    0.0504    0.5001    0.0000 C   0  0  0  0  0  0  0  0  0  0  0  0
    0.9170    0.0009    0.0000 C   0  0  0  0  0  0  0  0  0  0  0  0
    1.7826    0.5015    0.0000 C   0  0  0  0  0  0  0  0  0  0  0  0
    2.6490    0.0021    0.0000 F   0  0  0  0  0  0  0  0  0  0  0  0
    1.7818    1.5015    0.0000 C   0  0  0  0  0  0  0  0  0  0  0  0
    0.9154    2.0007    0.0000 C   0  0  0  0  0  0  0  0  0  0  0  0
    0.0496    1.5001    0.0000 C   0  0  0  0  0  0  0  0  0  0  0  0
   -0.8166    1.9993    0.0000 O   0  0  0  0  0  0  0  0  0  0  0  0
   -0.8174    2.9993    0.0000 R   0  0  0  0  0  0  0  0  0  0  0  0
    0.0522   -1.4999    0.0000 C   0  0  0  0  0  0  0  0  0  0  0  0
    0.0530   -2.4999    0.0000 R   0  0  0  0  0  0  0  0  0  0  0  0
    0.9178   -0.9993    0.0000 O   0  0  0  0  0  0  0  0  0  0  0  0
  1  2  1  0
  2  3  1  0
  2  4  1  0
  4  5  1  1
  5  6  1  0
  6  7  1  0
  7  8  2  0
  8  9  1  0
  8 10  1  0
 10 11  2  0
 11 12  1  0
 12 13  1  0
 13 14  1  0
  4 15  1  0
 15 16  1  0
 15 17  2  0
 12  6  2  0
M  ISO  3   1   1  14   3  16   2
V    1 *
V   14 *
V   16 *
M  END
>  <symbol>  (768) 
meTyr_3F

>  <m_Rgroups>  (768) 
[H],[OH],[H],None,None,None

>  <m_abbr>  (768) 
meTyr_3F

>  <m_name>  (768) 
NMe-L-3-fluorotyrosine

>  <m_type>  (768) 
aa

>  <m_subtype>  (768) 
modified

>  <m_chem_types>  (768) 
1:backbone_n,2:backbone_c,3:hydroxyl_phenolic

$$$$

     RDKit          2D

 17 17  0  0  0  0  0  0  0  0999 V2000
   -2.5462   -1.0019    0.0000 R   0  0  0  0  0  0  0  0  0  0  0  0
   -1.6798   -1.5013    0.0000 N   0  0  0  0  0  0  0  0  0  0  0  0
   -1.6790   -2.5013    0.0000 C   0  0  0  0  0  0  0  0  0  0  0  0
   -0.8142   -1.0007    0.0000 C   0  0  0  0  0  0  0  0  0  0  0  0
   -0.8150   -0.0007    0.0000 C   0  0  0  0  0  0  0  0  0  0  0  0
    0.0504    0.5001    0.0000 C   0  0  0  0  0  0  0  0  0  0  0  0
    0.9170    0.0009    0.0000 C   0  0  0  0  0  0  0  0  0  0  0  0
    1.7826    0.5015    0.0000 C   0  0  0  0  0  0  0  0  0  0  0  0
    2.6490    0.0021    0.0000 F   0  0  0  0  0  0  0  0  0  0  0  0
    1.7818    1.5015    0.0000 C   0  0  0  0  0  0  0  0  0  0  0  0
    0.9154    2.0007    0.0000 C   0  0  0  0  0  0  0  0  0  0  0  0
    0.0496    1.5001    0.0000 C   0  0  0  0  0  0  0  0  0  0  0  0
   -0.8166    1.9993    0.0000 O   0  0  0  0  0  0  0  0  0  0  0  0
   -0.8174    2.9993    0.0000 R   0  0  0  0  0  0  0  0  0  0  0  0
    0.0522   -1.4999    0.0000 C   0  0  0  0  0  0  0  0  0  0  0  0
    0.0530   -2.4999    0.0000 R   0  0  0  0  0  0  0  0  0  0  0  0
    0.9178   -0.9993    0.0000 O   0  0  0  0  0  0  0  0  0  0  0  0
  1  2  1  0
  2  3  1  0
  2  4  1  0
  4  5  1  6
  5  6  1  0
  6  7  1  0
  7  8  2  0
  8  9  1  0
  8 10  1  0
 10 11  2  0
 11 12  1  0
 12 13  1  0
 13 14  1  0
  4 15  1  0
 15 16  1  0
 15 17  2  0
 12  6  2  0
M  ISO  3   1   1  14   3  16   2
V    1 *
V   14 *
V   16 *
M  END
>  <symbol>  (769) 
D_meTyr_3F

>  <m_Rgroups>  (769) 
[H],[OH],[H],None,None,None

>  <m_abbr>  (769) 
D_meTyr_3F

>  <m_name>  (769) 
NMe-D-3-fluorotyrosine

>  <m_type>  (769) 
aa

>  <m_subtype>  (769) 
modified

>  <m_chem_types>  (769) 
1:backbone_n,2:backbone_c,3:hydroxyl_phenolic

$$$$

     RDKit          2D

 15 14  0  0  0  0  0  0  0  0999 V2000
   -4.6412   -0.5736    0.0000 R   0  0  0  0  0  0  0  0  0  0  0  0
   -3.2600   -1.1586    0.0000 N   0  0  0  0  0  0  0  0  0  0  0  0
   -3.0760   -2.6473    0.0000 R   0  0  0  0  0  0  0  0  0  0  0  0
   -2.0628   -0.2549    0.0000 C   0  0  0  0  0  0  0  0  0  0  0  0
   -0.6815   -0.8399    0.0000 C   0  0  0  0  0  0  0  0  0  0  0  0
    0.5157    0.0637    0.0000 C   0  0  0  0  0  0  0  0  0  0  0  0
    0.3317    1.5524    0.0000 O   0  0  0  0  0  0  0  0  0  0  0  0
    1.8969   -0.5213    0.0000 O   0  0  0  0  0  0  0  0  0  0  0  0
    3.0941    0.3824    0.0000 C   0  0  0  0  0  0  0  0  0  0  0  0
    4.4754   -0.2026    0.0000 C   0  0  0  0  0  0  0  0  0  0  0  0
    5.6726    0.7011    0.0000 R   0  0  0  0  0  0  0  0  0  0  0  0
    4.6594   -1.6913    0.0000 C   0  0  0  0  0  0  0  0  0  0  0  0
   -2.2468    1.2337    0.0000 C   0  0  0  0  0  0  0  0  0  0  0  0
   -1.0495    2.1374    0.0000 R   0  0  0  0  0  0  0  0  0  0  0  0
   -3.6280    1.8187    0.0000 O   0  0  0  0  0  0  0  0  0  0  0  0
  1  2  1  0
  2  3  1  0
  2  4  1  0
  4  5  1  1
  5  6  1  0
  6  7  2  0
  6  8  1  0
  8  9  1  0
  9 10  1  0
 10 11  1  0
 10 12  2  0
  4 13  1  0
 13 14  1  0
 13 15  2  0
M  ISO  4   1   1   3   3  11   4  14   2
V    1 *
V    3 *
V   11 *
V   14 *
M  END
>  <symbol>  (770) 
D_Asp_OAll

>  <m_Rgroups>  (770) 
[H],[OH],[H],[H],None,None

>  <m_abbr>  (770) 
D_Asp_OAll

>  <m_name>  (770) 
D-aspartate allyl ester

>  <m_type>  (770) 
aa

>  <m_subtype>  (770) 
modified

>  <m_chem_types>  (770) 
1:backbone_n,2:backbone_c,3:backbone_n_mod

$$$$

     RDKit          2D

 17 18  0  0  0  0  0  0  0  0999 V2000
    0.3946   -2.5754    0.0000 R   0  0  0  0  0  0  0  0  0  0  0  0
    0.3918   -1.5754    0.0000 N   0  0  0  0  0  0  0  0  0  0  0  0
   -0.4756   -1.0780    0.0000 R   0  0  0  0  0  0  0  0  0  0  0  0
    1.2564   -1.0730    0.0000 C   0  0  0  0  0  0  0  0  0  0  0  0
    1.2536   -0.0732    0.0000 C   0  0  0  0  0  0  0  0  0  0  0  0
    0.3860    0.4246    0.0000 C   0  0  0  0  0  0  0  0  0  0  0  0
   -0.5260    0.0150    0.0000 N   0  0  0  0  0  0  0  0  0  0  0  0
   -1.1974    0.7564    0.0000 C   0  0  0  0  0  0  0  0  0  0  0  0
   -2.1972    0.7536    0.0000 C   0  0  0  0  0  0  0  0  0  0  0  0
   -2.6998    1.6182    0.0000 C   0  0  0  0  0  0  0  0  0  0  0  0
   -2.2022    2.4856    0.0000 C   0  0  0  0  0  0  0  0  0  0  0  0
   -1.2022    2.4884    0.0000 C   0  0  0  0  0  0  0  0  0  0  0  0
   -0.6998    1.6238    0.0000 C   0  0  0  0  0  0  0  0  0  0  0  0
    0.2792    1.4188    0.0000 O   0  0  0  0  0  0  0  0  0  0  0  0
    2.1240   -1.5706    0.0000 C   0  0  0  0  0  0  0  0  0  0  0  0
    2.1268   -2.5706    0.0000 R   0  0  0  0  0  0  0  0  0  0  0  0
    2.9886   -1.0682    0.0000 O   0  0  0  0  0  0  0  0  0  0  0  0
  1  2  1  0
  2  3  1  0
  2  4  1  0
  4  5  1  6
  5  6  1  0
  6  7  2  0
  7  8  1  0
  8  9  2  0
  9 10  1  0
 10 11  2  0
 11 12  1  0
 12 13  2  0
 13 14  1  0
  4 15  1  0
 15 16  1  0
 15 17  2  0
 14  6  1  0
 13  8  1  0
M  ISO  3   1   1   3   3  16   2
V    1 *
V    3 *
V   16 *
M  END
>  <symbol>  (771) 
D_BenzoxAla

>  <m_Rgroups>  (771) 
[H],[OH],[H],None,None,None

>  <m_abbr>  (771) 
D_BenzoxAla

>  <m_name>  (771) 
D-benzoxazol-2-yl-alanine

>  <m_type>  (771) 
aa

>  <m_subtype>  (771) 
modified

>  <m_chem_types>  (771) 
1:backbone_n,2:backbone_c,3:backbone_n_mod

$$$$

     RDKit          2D

 10  9  0  0  0  0  0  0  0  0999 V2000
   -1.1226    1.5522    0.0000 R   0  0  0  0  0  0  0  0  0  0  0  0
   -1.1248    0.5522    0.0000 N   0  0  0  0  0  0  0  0  0  0  0  0
   -1.9918    0.0540    0.0000 R   0  0  0  0  0  0  0  0  0  0  0  0
   -0.2598    0.0506    0.0000 C   0  0  0  0  0  0  0  0  0  0  0  0
   -0.2618   -0.9494    0.0000 C   0  0  0  0  0  0  0  0  0  0  0  0
    0.6032   -1.4512    0.0000 C   0  0  0  0  0  0  0  0  0  0  0  0
    1.4682   -1.9528    0.0000 N   0  0  0  0  0  0  0  0  0  0  0  0
    0.6074    0.5488    0.0000 C   0  0  0  0  0  0  0  0  0  0  0  0
    1.4724    0.0470    0.0000 R   0  0  0  0  0  0  0  0  0  0  0  0
    0.6094    1.5488    0.0000 O   0  0  0  0  0  0  0  0  0  0  0  0
  1  2  1  0
  2  3  1  0
  2  4  1  0
  4  5  1  1
  5  6  1  0
  6  7  3  0
  4  8  1  0
  8  9  1  0
  8 10  2  0
M  ISO  3   1   1   3   3   9   2
V    1 *
V    3 *
V    9 *
M  END
>  <symbol>  (772) 
D_CyanoAla

>  <m_Rgroups>  (772) 
[H],[OH],[H],None,None,None

>  <m_abbr>  (772) 
D_CyanoAla

>  <m_name>  (772) 
D-2-amino-3-cyanopropionic acid

>  <m_type>  (772) 
aa

>  <m_subtype>  (772) 
modified

>  <m_chem_types>  (772) 
1:backbone_n,2:backbone_c,3:backbone_n_mod

$$$$

     RDKit          2D

 13 12  0  0  0  0  0  0  0  0999 V2000
   -2.7847    2.4383    0.0000 R   0  0  0  0  0  0  0  0  0  0  0  0
   -2.7929    0.9383    0.0000 N   0  0  0  0  0  0  0  0  0  0  0  0
   -4.0960    0.1954    0.0000 R   0  0  0  0  0  0  0  0  0  0  0  0
   -1.4979    0.1812    0.0000 C   0  0  0  0  0  0  0  0  0  0  0  0
   -0.1948    0.9242    0.0000 C   0  0  0  0  0  0  0  0  0  0  0  0
    1.1001    0.1671    0.0000 S   0  0  0  0  0  0  0  0  0  0  0  0
    2.4032    0.9100    0.0000 C   0  0  0  0  0  0  0  0  0  0  0  0
    3.6982    0.1529    0.0000 C   0  0  0  0  0  0  0  0  0  0  0  0
    5.0013    0.8959    0.0000 R   0  0  0  0  0  0  0  0  0  0  0  0
    3.6900   -1.3470    0.0000 C   0  0  0  0  0  0  0  0  0  0  0  0
   -1.5061   -1.3187    0.0000 C   0  0  0  0  0  0  0  0  0  0  0  0
   -0.2112   -2.0758    0.0000 R   0  0  0  0  0  0  0  0  0  0  0  0
   -2.8092   -2.0617    0.0000 O   0  0  0  0  0  0  0  0  0  0  0  0
  1  2  1  0
  2  3  1  0
  2  4  1  0
  4  5  1  6
  5  6  1  0
  6  7  1  0
  7  8  1  0
  8  9  1  0
  8 10  2  0
  4 11  1  0
 11 12  1  0
 11 13  2  0
M  ISO  4   1   1   3   3   9   4  12   2
V    1 *
V    3 *
V    9 *
V   12 *
M  END
>  <symbol>  (773) 
D_Cys_All

>  <m_Rgroups>  (773) 
[H],[OH],[H],[H],None,None

>  <m_abbr>  (773) 
D_Cys_All

>  <m_name>  (773) 
D-S-allylcysteine

>  <m_type>  (773) 
aa

>  <m_subtype>  (773) 
modified

>  <m_chem_types>  (773) 
1:backbone_n,2:backbone_c,3:backbone_n_mod

$$$$

     RDKit          2D

 18 17  0  0  0  0  0  0  0  0999 V2000
   -5.0237   -1.8425    0.0000 R   0  0  0  0  0  0  0  0  0  0  0  0
   -3.5345   -1.6626    0.0000 N   0  0  0  0  0  0  0  0  0  0  0  0
   -2.6342   -2.8624    0.0000 R   0  0  0  0  0  0  0  0  0  0  0  0
   -2.9456   -0.2830    0.0000 C   0  0  0  0  0  0  0  0  0  0  0  0
   -1.4565   -0.1032    0.0000 C   0  0  0  0  0  0  0  0  0  0  0  0
   -0.8676    1.2764    0.0000 C   0  0  0  0  0  0  0  0  0  0  0  0
    0.6216    1.4562    0.0000 N   0  0  0  0  0  0  0  0  0  0  0  0
    1.2104    2.8358    0.0000 R   0  0  0  0  0  0  0  0  0  0  0  0
    1.5219    0.2565    0.0000 C   0  0  0  0  0  0  0  0  0  0  0  0
    0.9331   -1.1231    0.0000 O   0  0  0  0  0  0  0  0  0  0  0  0
    3.0111    0.4363    0.0000 O   0  0  0  0  0  0  0  0  0  0  0  0
    3.9114   -0.7634    0.0000 C   0  0  0  0  0  0  0  0  0  0  0  0
    5.4006   -0.5836    0.0000 C   0  0  0  0  0  0  0  0  0  0  0  0
    6.3009   -1.7833    0.0000 R   0  0  0  0  0  0  0  0  0  0  0  0
    5.9894    0.7960    0.0000 C   0  0  0  0  0  0  0  0  0  0  0  0
   -3.8460    0.9167    0.0000 C   0  0  0  0  0  0  0  0  0  0  0  0
   -3.2571    2.2963    0.0000 R   0  0  0  0  0  0  0  0  0  0  0  0
   -5.3352    0.7369    0.0000 O   0  0  0  0  0  0  0  0  0  0  0  0
  1  2  1  0
  2  3  1  0
  2  4  1  0
  4  5  1  1
  5  6  1  0
  6  7  1  0
  7  8  1  0
  7  9  1  0
  9 10  2  0
  9 11  1  0
 11 12  1  0
 12 13  1  0
 13 14  1  0
 13 15  2  0
  4 16  1  0
 16 17  1  0
 16 18  2  0
M  ISO  5   1   1   3   3   8   4  14   5  17   2
V    1 *
V    3 *
V    8 *
V   14 *
V   17 *
M  END
>  <symbol>  (774) 
D_Dab_Alloc

>  <m_Rgroups>  (774) 
[H],[OH],[H],[H],[H],None

>  <m_abbr>  (774) 
D_Dab_Alloc

>  <m_name>  (774) 
D-Dab(Alloc) - 2,4-diaminobutyric acid N4-allyloxycarbonyl

>  <m_type>  (774) 
aa

>  <m_subtype>  (774) 
modified

>  <m_chem_types>  (774) 
1:backbone_n,2:backbone_c,3:backbone_n_mod

$$$$

     RDKit          2D

 17 16  0  0  0  0  0  0  0  0999 V2000
   -4.0543   -2.0537    0.0000 R   0  0  0  0  0  0  0  0  0  0  0  0
   -2.7277   -1.3535    0.0000 N   0  0  0  0  0  0  0  0  0  0  0  0
   -1.4581   -2.1522    0.0000 R   0  0  0  0  0  0  0  0  0  0  0  0
   -2.6709    0.1455    0.0000 C   0  0  0  0  0  0  0  0  0  0  0  0
   -1.3444    0.8457    0.0000 C   0  0  0  0  0  0  0  0  0  0  0  0
   -0.0747    0.0470    0.0000 N   0  0  0  0  0  0  0  0  0  0  0  0
   -0.1315   -1.4519    0.0000 R   0  0  0  0  0  0  0  0  0  0  0  0
    1.2518    0.7472    0.0000 C   0  0  0  0  0  0  0  0  0  0  0  0
    1.3087    2.2461    0.0000 O   0  0  0  0  0  0  0  0  0  0  0  0
    2.5215   -0.0515    0.0000 O   0  0  0  0  0  0  0  0  0  0  0  0
    3.8481    0.6487    0.0000 C   0  0  0  0  0  0  0  0  0  0  0  0
    5.1177   -0.1500    0.0000 C   0  0  0  0  0  0  0  0  0  0  0  0
    6.4443    0.5503    0.0000 R   0  0  0  0  0  0  0  0  0  0  0  0
    5.0609   -1.6489    0.0000 C   0  0  0  0  0  0  0  0  0  0  0  0
   -3.9406    0.9442    0.0000 C   0  0  0  0  0  0  0  0  0  0  0  0
   -5.2671    0.2439    0.0000 R   0  0  0  0  0  0  0  0  0  0  0  0
   -3.8837    2.4431    0.0000 O   0  0  0  0  0  0  0  0  0  0  0  0
  1  2  1  0
  2  3  1  0
  2  4  1  0
  4  5  1  1
  5  6  1  0
  6  7  1  0
  6  8  1  0
  8  9  2  0
  8 10  1  0
 10 11  1  0
 11 12  1  0
 12 13  1  0
 12 14  2  0
  4 15  1  0
 15 16  1  0
 15 17  2  0
M  ISO  5   1   1   3   3   7   4  13   5  16   2
V    1 *
V    3 *
V    7 *
V   13 *
V   16 *
M  END
>  <symbol>  (775) 
D_Dap_Alloc

>  <m_Rgroups>  (775) 
[H],[OH],[H],[H],[H],None

>  <m_abbr>  (775) 
D_Dap_Alloc

>  <m_name>  (775) 
D-Dap(Alloc) - 2,3-diaminopropionic acid N3-allyloxycarbonyl

>  <m_type>  (775) 
aa

>  <m_subtype>  (775) 
modified

>  <m_chem_types>  (775) 
1:backbone_n,2:backbone_c,3:backbone_n_mod

$$$$

     RDKit          2D

 16 15  0  0  0  0  0  0  0  0999 V2000
   -5.2755   -0.1474    0.0000 R   0  0  0  0  0  0  0  0  0  0  0  0
   -3.9497   -0.8490    0.0000 N   0  0  0  0  0  0  0  0  0  0  0  0
   -3.8945   -2.3480    0.0000 R   0  0  0  0  0  0  0  0  0  0  0  0
   -2.6792   -0.0517    0.0000 C   0  0  0  0  0  0  0  0  0  0  0  0
   -1.3534   -0.7534    0.0000 C   0  0  0  0  0  0  0  0  0  0  0  0
   -0.0829    0.0439    0.0000 C   0  0  0  0  0  0  0  0  0  0  0  0
    1.2429   -0.6578    0.0000 C   0  0  0  0  0  0  0  0  0  0  0  0
    1.2981   -2.1568    0.0000 O   0  0  0  0  0  0  0  0  0  0  0  0
    2.5135    0.1395    0.0000 O   0  0  0  0  0  0  0  0  0  0  0  0
    3.8392   -0.5622    0.0000 C   0  0  0  0  0  0  0  0  0  0  0  0
    5.1098    0.2351    0.0000 C   0  0  0  0  0  0  0  0  0  0  0  0
    6.4355   -0.4666    0.0000 R   0  0  0  0  0  0  0  0  0  0  0  0
    5.0546    1.7340    0.0000 C   0  0  0  0  0  0  0  0  0  0  0  0
   -2.7344    1.4472    0.0000 C   0  0  0  0  0  0  0  0  0  0  0  0
   -1.4638    2.2445    0.0000 R   0  0  0  0  0  0  0  0  0  0  0  0
   -4.0601    2.1489    0.0000 O   0  0  0  0  0  0  0  0  0  0  0  0
  1  2  1  0
  2  3  1  0
  2  4  1  0
  4  5  1  1
  5  6  1  0
  6  7  1  0
  7  8  2  0
  7  9  1  0
  9 10  1  0
 10 11  1  0
 11 12  1  0
 11 13  2  0
  4 14  1  0
 14 15  1  0
 14 16  2  0
M  ISO  4   1   1   3   3  12   4  15   2
V    1 *
V    3 *
V   12 *
V   15 *
M  END
>  <symbol>  (776) 
D_Glu_OAll

>  <m_Rgroups>  (776) 
[H],[OH],[H],[H],None,None

>  <m_abbr>  (776) 
D_Glu_OAll

>  <m_name>  (776) 
D-glutamate allyl ester

>  <m_type>  (776) 
aa

>  <m_subtype>  (776) 
modified

>  <m_chem_types>  (776) 
1:backbone_n,2:backbone_c,3:backbone_n_mod

$$$$

     RDKit          2D

 18 19  0  0  0  0  0  0  0  0999 V2000
   -1.5934   -2.8579    0.0000 R   0  0  0  0  0  0  0  0  0  0  0  0
   -1.5914   -1.8579    0.0000 N   0  0  0  0  0  0  0  0  0  0  0  0
   -2.4564   -1.3561    0.0000 R   0  0  0  0  0  0  0  0  0  0  0  0
   -0.7244   -1.3597    0.0000 C   0  0  0  0  0  0  0  0  0  0  0  0
   -0.7224   -0.3597    0.0000 C   0  0  0  0  0  0  0  0  0  0  0  0
    0.1448    0.1387    0.0000 C   0  0  0  0  0  0  0  0  0  0  0  0
    1.0096   -0.3631    0.0000 N   0  0  0  0  0  0  0  0  0  0  0  0
    1.8768    0.1351    0.0000 C   0  0  0  0  0  0  0  0  0  0  0  0
    1.8786    1.1351    0.0000 C   0  0  0  0  0  0  0  0  0  0  0  0
    1.0138    1.6369    0.0000 C   0  0  0  0  0  0  0  0  0  0  0  0
    1.0156    2.6367    0.0000 C   0  0  0  0  0  0  0  0  0  0  0  0
    0.1508    3.1387    0.0000 C   0  0  0  0  0  0  0  0  0  0  0  0
   -0.7164    2.6403    0.0000 C   0  0  0  0  0  0  0  0  0  0  0  0
   -0.7182    1.6403    0.0000 C   0  0  0  0  0  0  0  0  0  0  0  0
    0.1466    1.1385    0.0000 C   0  0  0  0  0  0  0  0  0  0  0  0
    0.1406   -1.8613    0.0000 C   0  0  0  0  0  0  0  0  0  0  0  0
    0.1386   -2.8613    0.0000 R   0  0  0  0  0  0  0  0  0  0  0  0
    1.0076   -1.3631    0.0000 O   0  0  0  0  0  0  0  0  0  0  0  0
  1  2  1  0
  2  3  1  0
  2  4  1  0
  4  5  1  6
  5  6  1  0
  6  7  2  0
  7  8  1  0
  8  9  2  0
  9 10  1  0
 10 11  2  0
 11 12  1  0
 12 13  2  0
 13 14  1  0
 14 15  2  0
  4 16  1  0
 16 17  1  0
 16 18  2  0
 15  6  1  0
 15 10  1  0
M  ISO  3   1   1   3   3  17   2
V    1 *
V    3 *
V   17 *
M  END
>  <symbol>  (777) 
D_IsoQuiAla

>  <m_Rgroups>  (777) 
[H],[OH],[H],None,None,None

>  <m_abbr>  (777) 
D_IsoQuiAla

>  <m_name>  (777) 
D-isoquinolin-1-yl-alanine

>  <m_type>  (777) 
aa

>  <m_subtype>  (777) 
modified

>  <m_chem_types>  (777) 
1:backbone_n,2:backbone_c,3:backbone_n_mod

$$$$

     RDKit          2D

 13 12  0  0  0  0  0  0  0  0999 V2000
   -1.4606    2.4643    0.0000 R   0  0  0  0  0  0  0  0  0  0  0  0
   -1.4626    1.4643    0.0000 N   0  0  0  0  0  0  0  0  0  0  0  0
   -2.3298    0.9661    0.0000 R   0  0  0  0  0  0  0  0  0  0  0  0
   -0.5976    0.9627    0.0000 C   0  0  0  0  0  0  0  0  0  0  0  0
   -0.5996   -0.0373    0.0000 C   0  0  0  0  0  0  0  0  0  0  0  0
    0.2654   -0.5391    0.0000 C   0  0  0  0  0  0  0  0  0  0  0  0
    0.2634   -1.5389    0.0000 C   0  0  0  0  0  0  0  0  0  0  0  0
    1.1284   -2.0407    0.0000 C   0  0  0  0  0  0  0  0  0  0  0  0
    1.1262   -3.0407    0.0000 N   0  0  0  0  0  0  0  0  0  0  0  0
    1.9912   -3.5423    0.0000 C   0  0  0  0  0  0  0  0  0  0  0  0
    0.2694    1.4609    0.0000 C   0  0  0  0  0  0  0  0  0  0  0  0
    1.1344    0.9593    0.0000 R   0  0  0  0  0  0  0  0  0  0  0  0
    0.2714    2.4609    0.0000 O   0  0  0  0  0  0  0  0  0  0  0  0
  1  2  1  0
  2  3  1  0
  2  4  1  0
  4  5  1  1
  5  6  1  0
  6  7  1  0
  7  8  1  0
  8  9  1  0
  9 10  1  0
  4 11  1  0
 11 12  1  0
 11 13  2  0
M  ISO  3   1   1   3   3  12   2
V    1 *
V    3 *
V   12 *
M  END
>  <symbol>  (778) 
D_Lys_5Me

>  <m_Rgroups>  (778) 
[H],[OH],[H],None,None,None

>  <m_abbr>  (778) 
D_Lys_5Me

>  <m_name>  (778) 
D-N-epsilon-methyllysine

>  <m_type>  (778) 
aa

>  <m_subtype>  (778) 
modified

>  <m_chem_types>  (778) 
1:backbone_n,2:backbone_c,3:backbone_n_mod

$$$$

     RDKit          2D

 14 13  0  0  0  0  0  0  0  0999 V2000
   -1.4790    2.7172    0.0000 R   0  0  0  0  0  0  0  0  0  0  0  0
   -1.4812    1.7172    0.0000 N   0  0  0  0  0  0  0  0  0  0  0  0
   -2.3482    1.2190    0.0000 R   0  0  0  0  0  0  0  0  0  0  0  0
   -0.6162    1.2156    0.0000 C   0  0  0  0  0  0  0  0  0  0  0  0
   -0.6182    0.2156    0.0000 C   0  0  0  0  0  0  0  0  0  0  0  0
    0.2468   -0.2862    0.0000 C   0  0  0  0  0  0  0  0  0  0  0  0
    0.2448   -1.2862    0.0000 C   0  0  0  0  0  0  0  0  0  0  0  0
    1.1098   -1.7878    0.0000 C   0  0  0  0  0  0  0  0  0  0  0  0
    1.1078   -2.7878    0.0000 N   0  0  0  0  0  0  0  0  0  0  0  0
    1.9728   -3.2896    0.0000 C   0  0  0  0  0  0  0  0  0  0  0  0
    0.2408   -3.2860    0.0000 C   0  0  0  0  0  0  0  0  0  0  0  0
    0.2510    1.7138    0.0000 C   0  0  0  0  0  0  0  0  0  0  0  0
    1.1160    1.2120    0.0000 R   0  0  0  0  0  0  0  0  0  0  0  0
    0.2530    2.7138    0.0000 O   0  0  0  0  0  0  0  0  0  0  0  0
  1  2  1  0
  2  3  1  0
  2  4  1  0
  4  5  1  1
  5  6  1  0
  6  7  1  0
  7  8  1  0
  8  9  1  0
  9 10  1  0
  9 11  1  0
  4 12  1  0
 12 13  1  0
 12 14  2  0
M  ISO  3   1   1   3   3  13   2
V    1 *
V    3 *
V   13 *
M  END
>  <symbol>  (779) 
D_Lys_5diMe

>  <m_Rgroups>  (779) 
[H],[OH],[H],None,None,None

>  <m_abbr>  (779) 
D_Lys_5diMe

>  <m_name>  (779) 
D-N-epsilon-dimethyllysine

>  <m_type>  (779) 
aa

>  <m_subtype>  (779) 
modified

>  <m_chem_types>  (779) 
1:backbone_n,2:backbone_c,3:backbone_n_mod

$$$$

     RDKit          2D

 20 19  0  0  0  0  0  0  0  0999 V2000
   -6.4543   -1.5999    0.0000 R   0  0  0  0  0  0  0  0  0  0  0  0
   -4.9575   -1.6968    0.0000 N   0  0  0  0  0  0  0  0  0  0  0  0
   -4.2930   -3.0416    0.0000 R   0  0  0  0  0  0  0  0  0  0  0  0
   -4.1251   -0.4489    0.0000 C   0  0  0  0  0  0  0  0  0  0  0  0
   -2.6283   -0.5458    0.0000 C   0  0  0  0  0  0  0  0  0  0  0  0
   -1.7959    0.7021    0.0000 C   0  0  0  0  0  0  0  0  0  0  0  0
   -0.2990    0.6051    0.0000 C   0  0  0  0  0  0  0  0  0  0  0  0
    0.5333    1.8530    0.0000 C   0  0  0  0  0  0  0  0  0  0  0  0
    2.0302    1.7561    0.0000 N   0  0  0  0  0  0  0  0  0  0  0  0
    2.8625    3.0040    0.0000 R   0  0  0  0  0  0  0  0  0  0  0  0
    2.6947    0.4113    0.0000 C   0  0  0  0  0  0  0  0  0  0  0  0
    1.8623   -0.8365    0.0000 O   0  0  0  0  0  0  0  0  0  0  0  0
    4.1916    0.3144    0.0000 O   0  0  0  0  0  0  0  0  0  0  0  0
    4.8561   -1.0303    0.0000 C   0  0  0  0  0  0  0  0  0  0  0  0
    6.3529   -1.1273    0.0000 C   0  0  0  0  0  0  0  0  0  0  0  0
    7.0175   -2.4720    0.0000 R   0  0  0  0  0  0  0  0  0  0  0  0
    7.1853    0.1206    0.0000 C   0  0  0  0  0  0  0  0  0  0  0  0
   -4.7896    0.8959    0.0000 C   0  0  0  0  0  0  0  0  0  0  0  0
   -3.9573    2.1437    0.0000 R   0  0  0  0  0  0  0  0  0  0  0  0
   -6.2865    0.9928    0.0000 O   0  0  0  0  0  0  0  0  0  0  0  0
  1  2  1  0
  2  3  1  0
  2  4  1  0
  4  5  1  1
  5  6  1  0
  6  7  1  0
  7  8  1  0
  8  9  1  0
  9 10  1  0
  9 11  1  0
 11 12  2  0
 11 13  1  0
 13 14  1  0
 14 15  1  0
 15 16  1  0
 15 17  2  0
  4 18  1  0
 18 19  1  0
 18 20  2  0
M  ISO  5   1   1   3   3  10   4  16   5  19   2
V    1 *
V    3 *
V   10 *
V   16 *
V   19 *
M  END
>  <symbol>  (780) 
D_Lys_Alloc

>  <m_Rgroups>  (780) 
[H],[OH],[H],[H],[H],None

>  <m_abbr>  (780) 
D_Lys_Alloc

>  <m_name>  (780) 
D-Lys(Alloc) - lysine N-epsilon-allyloxycarbonyl

>  <m_type>  (780) 
aa

>  <m_subtype>  (780) 
modified

>  <m_chem_types>  (780) 
1:backbone_n,2:backbone_c,3:backbone_n_mod

$$$$

     RDKit          2D

 22 22  0  0  0  0  0  0  0  0999 V2000
   -2.7071    4.4826    0.0000 R   0  0  0  0  0  0  0  0  0  0  0  0
   -2.7091    3.4826    0.0000 N   0  0  0  0  0  0  0  0  0  0  0  0
   -3.5761    2.9844    0.0000 R   0  0  0  0  0  0  0  0  0  0  0  0
   -1.8441    2.9808    0.0000 C   0  0  0  0  0  0  0  0  0  0  0  0
   -1.8461    1.9808    0.0000 C   0  0  0  0  0  0  0  0  0  0  0  0
   -0.9811    1.4792    0.0000 C   0  0  0  0  0  0  0  0  0  0  0  0
   -0.9831    0.4792    0.0000 C   0  0  0  0  0  0  0  0  0  0  0  0
   -0.1181   -0.0226    0.0000 C   0  0  0  0  0  0  0  0  0  0  0  0
   -0.1201   -1.0226    0.0000 N   0  0  0  0  0  0  0  0  0  0  0  0
   -0.9871   -1.5208    0.0000 R   0  0  0  0  0  0  0  0  0  0  0  0
    0.7449   -1.5242    0.0000 C   0  0  0  0  0  0  0  0  0  0  0  0
    1.6119   -1.0260    0.0000 O   0  0  0  0  0  0  0  0  0  0  0  0
    0.7429   -2.5242    0.0000 O   0  0  0  0  0  0  0  0  0  0  0  0
    1.6079   -3.0258    0.0000 C   0  0  0  0  0  0  0  0  0  0  0  0
    1.6059   -4.0258    0.0000 C   0  0  0  0  0  0  0  0  0  0  0  0
    2.4709   -4.5276    0.0000 C   0  0  0  0  0  0  0  0  0  0  0  0
    3.3379   -4.0294    0.0000 C   0  0  0  0  0  0  0  0  0  0  0  0
    3.3399   -3.0294    0.0000 C   0  0  0  0  0  0  0  0  0  0  0  0
    2.4749   -2.5276    0.0000 C   0  0  0  0  0  0  0  0  0  0  0  0
   -0.9771    3.4792    0.0000 C   0  0  0  0  0  0  0  0  0  0  0  0
   -0.1121    2.9774    0.0000 R   0  0  0  0  0  0  0  0  0  0  0  0
   -0.9751    4.4790    0.0000 O   0  0  0  0  0  0  0  0  0  0  0  0
  1  2  1  0
  2  3  1  0
  2  4  1  0
  4  5  1  1
  5  6  1  0
  6  7  1  0
  7  8  1  0
  8  9  1  0
  9 10  1  0
  9 11  1  0
 11 12  2  0
 11 13  1  0
 13 14  1  0
 14 15  2  0
 15 16  1  0
 16 17  2  0
 17 18  1  0
 18 19  2  0
  4 20  1  0
 20 21  1  0
 20 22  2  0
 19 14  1  0
M  ISO  4   1   1   3   3  10   4  21   2
V    1 *
V    3 *
V   10 *
V   21 *
M  END
>  <symbol>  (781) 
D_Lys_Cbz

>  <m_Rgroups>  (781) 
[H],[OH],[H],[H],None,None

>  <m_abbr>  (781) 
D_Lys_Cbz

>  <m_name>  (781) 
D-Lys(Cbz) - lysine N-epsilon-benzyloxycarbonyl

>  <m_type>  (781) 
aa

>  <m_subtype>  (781) 
modified

>  <m_chem_types>  (781) 
1:backbone_n,2:backbone_c,3:backbone_n_mod,4:amide_nh

$$$$

     RDKit          2D

 32 34  0  0  0  0  0  0  0  0999 V2000
    1.5846   -4.7420    0.0000 R   0  0  0  0  0  0  0  0  0  0  0  0
    1.5878   -3.7416    0.0000 N   0  0  0  0  0  0  0  0  0  0  0  0
    0.7234   -3.2392    0.0000 R   0  0  0  0  0  0  0  0  0  0  0  0
    2.4564   -3.2434    0.0000 C   0  0  0  0  0  0  0  0  0  0  0  0
    2.4584   -2.2390    0.0000 C   0  0  0  0  0  0  0  0  0  0  0  0
    1.5880   -1.7396    0.0000 C   0  0  0  0  0  0  0  0  0  0  0  0
    1.5728   -0.7338    0.0000 C   0  0  0  0  0  0  0  0  0  0  0  0
    0.6878   -0.2476    0.0000 C   0  0  0  0  0  0  0  0  0  0  0  0
    0.6584    0.7580    0.0000 N   0  0  0  0  0  0  0  0  0  0  0  0
   -0.2294    1.2498    0.0000 C   0  0  0  0  0  0  0  0  0  0  0  0
   -1.7490    1.2838    0.0000 C   0  0  0  0  0  0  0  0  0  0  0  0
   -2.2426    2.1508    0.0000 C   0  0  0  0  0  0  0  0  0  0  0  0
   -3.2442    2.1532    0.0000 C   0  0  0  0  0  0  0  0  0  0  0  0
   -3.7470    1.2948    0.0000 C   0  0  0  0  0  0  0  0  0  0  0  0
   -3.2552    0.4266    0.0000 C   0  0  0  0  0  0  0  0  0  0  0  0
   -2.2564    0.4220    0.0000 C   0  0  0  0  0  0  0  0  0  0  0  0
   -0.5994    0.3800    0.0000 C   0  0  0  0  0  0  0  0  0  0  0  0
   -1.5918    0.3796    0.0000 C   0  0  0  0  0  0  0  0  0  0  0  0
   -2.0930   -0.4850    0.0000 C   0  0  0  0  0  0  0  0  0  0  0  0
   -1.5964   -1.3508    0.0000 C   0  0  0  0  0  0  0  0  0  0  0  0
   -0.5984   -1.3492    0.0000 C   0  0  0  0  0  0  0  0  0  0  0  0
   -0.1012   -0.4886    0.0000 C   0  0  0  0  0  0  0  0  0  0  0  0
   -0.1276    2.2642    0.0000 C   0  0  0  0  0  0  0  0  0  0  0  0
    0.7454    2.7616    0.0000 C   0  0  0  0  0  0  0  0  0  0  0  0
    0.7470    3.7594    0.0000 C   0  0  0  0  0  0  0  0  0  0  0  0
   -0.1164    4.2642    0.0000 C   0  0  0  0  0  0  0  0  0  0  0  0
   -0.1128    5.2634    0.0000 C   0  0  0  0  0  0  0  0  0  0  0  0
   -0.9856    3.7680    0.0000 C   0  0  0  0  0  0  0  0  0  0  0  0
   -0.9888    2.7698    0.0000 C   0  0  0  0  0  0  0  0  0  0  0  0
    3.3206   -3.7478    0.0000 C   0  0  0  0  0  0  0  0  0  0  0  0
    3.3154   -4.7486    0.0000 R   0  0  0  0  0  0  0  0  0  0  0  0
    4.1888   -3.2528    0.0000 O   0  0  0  0  0  0  0  0  0  0  0  0
  1  2  1  0
  2  3  1  0
  2  4  1  0
  4  5  1  6
  5  6  1  0
  6  7  1  0
  7  8  1  0
  8  9  1  0
  9 10  1  0
 10 11  1  0
 11 12  2  0
 12 13  1  0
 13 14  2  0
 14 15  1  0
 15 16  2  0
 10 17  1  0
 17 18  2  0
 18 19  1  0
 19 20  2  0
 20 21  1  0
 21 22  2  0
 10 23  1  0
 23 24  1  0
 24 25  2  0
 25 26  1  0
 26 27  1  0
 26 28  2  0
 28 29  1  0
  4 30  1  0
 30 31  1  0
 30 32  2  0
 16 11  1  0
 22 17  1  0
 29 23  2  0
M  ISO  3   1   1   3   3  31   2
V    1 *
V    3 *
V   31 *
M  END
>  <symbol>  (782) 
D_Lys_Mtt

>  <m_Rgroups>  (782) 
[H],[OH],[H],None,None,None

>  <m_abbr>  (782) 
D_Lys_Mtt

>  <m_name>  (782) 
D-Lys(Mtt) - lysine N-epsilon-4-methyltrityl

>  <m_type>  (782) 
aa

>  <m_subtype>  (782) 
modified

>  <m_chem_types>  (782) 
1:backbone_n,2:backbone_c,3:backbone_n_mod

$$$$

     RDKit          2D

 19 18  0  0  0  0  0  0  0  0999 V2000
   -5.8387    1.1749    0.0000 R   0  0  0  0  0  0  0  0  0  0  0  0
   -4.9572   -0.0388    0.0000 N   0  0  0  0  0  0  0  0  0  0  0  0
   -5.5676   -1.4090    0.0000 R   0  0  0  0  0  0  0  0  0  0  0  0
   -3.4654    0.1177    0.0000 C   0  0  0  0  0  0  0  0  0  0  0  0
   -2.5840   -1.0960    0.0000 C   0  0  0  0  0  0  0  0  0  0  0  0
   -1.0921   -0.9395    0.0000 C   0  0  0  0  0  0  0  0  0  0  0  0
   -0.2107   -2.1532    0.0000 C   0  0  0  0  0  0  0  0  0  0  0  0
    1.2811   -1.9967    0.0000 N   0  0  0  0  0  0  0  0  0  0  0  0
    2.1625   -3.2104    0.0000 R   0  0  0  0  0  0  0  0  0  0  0  0
    1.8915   -0.6265    0.0000 C   0  0  0  0  0  0  0  0  0  0  0  0
    1.0100    0.5872    0.0000 O   0  0  0  0  0  0  0  0  0  0  0  0
    3.3833   -0.4700    0.0000 O   0  0  0  0  0  0  0  0  0  0  0  0
    3.9937    0.9002    0.0000 C   0  0  0  0  0  0  0  0  0  0  0  0
    5.4855    1.0567    0.0000 C   0  0  0  0  0  0  0  0  0  0  0  0
    6.0959    2.4269    0.0000 R   0  0  0  0  0  0  0  0  0  0  0  0
    6.3669   -0.1570    0.0000 C   0  0  0  0  0  0  0  0  0  0  0  0
   -2.8550    1.4879    0.0000 C   0  0  0  0  0  0  0  0  0  0  0  0
   -1.3632    1.6444    0.0000 R   0  0  0  0  0  0  0  0  0  0  0  0
   -3.7365    2.7016    0.0000 O   0  0  0  0  0  0  0  0  0  0  0  0
  1  2  1  0
  2  3  1  0
  2  4  1  0
  4  5  1  1
  5  6  1  0
  6  7  1  0
  7  8  1  0
  8  9  1  0
  8 10  1  0
 10 11  2  0
 10 12  1  0
 12 13  1  0
 13 14  1  0
 14 15  1  0
 14 16  2  0
  4 17  1  0
 17 18  1  0
 17 19  2  0
M  ISO  5   1   1   3   3   9   4  15   5  18   2
V    1 *
V    3 *
V    9 *
V   15 *
V   18 *
M  END
>  <symbol>  (783) 
D_Orn_Alloc

>  <m_Rgroups>  (783) 
[H],[OH],[H],[H],[H],None

>  <m_abbr>  (783) 
D_Orn_Alloc

>  <m_name>  (783) 
D-Orn(Alloc) - ornithine N-delta-allyloxycarbonyl

>  <m_type>  (783) 
aa

>  <m_subtype>  (783) 
modified

>  <m_chem_types>  (783) 
1:backbone_n,2:backbone_c,3:backbone_n_mod

$$$$

     RDKit          2D

 21 21  0  0  0  0  0  0  0  0999 V2000
   -2.1357   -4.2900    0.0000 R   0  0  0  0  0  0  0  0  0  0  0  0
   -2.1377   -3.2900    0.0000 N   0  0  0  0  0  0  0  0  0  0  0  0
   -3.0049   -2.7916    0.0000 R   0  0  0  0  0  0  0  0  0  0  0  0
   -1.2727   -2.7882    0.0000 C   0  0  0  0  0  0  0  0  0  0  0  0
   -1.2747   -1.7882    0.0000 C   0  0  0  0  0  0  0  0  0  0  0  0
   -0.4097   -1.2866    0.0000 C   0  0  0  0  0  0  0  0  0  0  0  0
   -0.4117   -0.2866    0.0000 C   0  0  0  0  0  0  0  0  0  0  0  0
    0.4533    0.2152    0.0000 N   0  0  0  0  0  0  0  0  0  0  0  0
    1.3203   -0.2830    0.0000 R   0  0  0  0  0  0  0  0  0  0  0  0
    0.4511    1.2152    0.0000 C   0  0  0  0  0  0  0  0  0  0  0  0
   -0.4159    1.7134    0.0000 O   0  0  0  0  0  0  0  0  0  0  0  0
    1.3161    1.7168    0.0000 O   0  0  0  0  0  0  0  0  0  0  0  0
    1.3141    2.7168    0.0000 C   0  0  0  0  0  0  0  0  0  0  0  0
    0.4471    3.2150    0.0000 C   0  0  0  0  0  0  0  0  0  0  0  0
    0.4453    4.2150    0.0000 C   0  0  0  0  0  0  0  0  0  0  0  0
    1.3101    4.7168    0.0000 C   0  0  0  0  0  0  0  0  0  0  0  0
    2.1773    4.2186    0.0000 C   0  0  0  0  0  0  0  0  0  0  0  0
    2.1791    3.2186    0.0000 C   0  0  0  0  0  0  0  0  0  0  0  0
   -0.4057   -3.2864    0.0000 C   0  0  0  0  0  0  0  0  0  0  0  0
    0.4593   -2.7848    0.0000 R   0  0  0  0  0  0  0  0  0  0  0  0
   -0.4037   -4.2864    0.0000 O   0  0  0  0  0  0  0  0  0  0  0  0
  1  2  1  0
  2  3  1  0
  2  4  1  0
  4  5  1  6
  5  6  1  0
  6  7  1  0
  7  8  1  0
  8  9  1  0
  8 10  1  0
 10 11  2  0
 10 12  1  0
 12 13  1  0
 13 14  2  0
 14 15  1  0
 15 16  2  0
 16 17  1  0
 17 18  2  0
  4 19  1  0
 19 20  1  0
 19 21  2  0
 18 13  1  0
M  ISO  4   1   1   3   3   9   4  20   2
V    1 *
V    3 *
V    9 *
V   20 *
M  END
>  <symbol>  (784) 
D_Orn_Cbz

>  <m_Rgroups>  (784) 
[H],[OH],[H],[H],None,None

>  <m_abbr>  (784) 
D_Orn_Cbz

>  <m_name>  (784) 
D-Orn(Cbz) - ornithine N-delta-benzyloxycarbonyl

>  <m_type>  (784) 
aa

>  <m_subtype>  (784) 
modified

>  <m_chem_types>  (784) 
1:backbone_n,2:backbone_c,3:backbone_n_mod,4:amide_nh

$$$$

     RDKit          2D

 18 18  0  0  0  0  0  0  0  0999 V2000
    0.3871   -2.7775    0.0000 R   0  0  0  0  0  0  0  0  0  0  0  0
    0.3863   -1.7775    0.0000 N   0  0  0  0  0  0  0  0  0  0  0  0
   -0.4801   -1.2781    0.0000 R   0  0  0  0  0  0  0  0  0  0  0  0
    1.2519   -1.2767    0.0000 C   0  0  0  0  0  0  0  0  0  0  0  0
    1.2511   -0.2767    0.0000 C   0  0  0  0  0  0  0  0  0  0  0  0
    0.3847    0.2225    0.0000 C   0  0  0  0  0  0  0  0  0  0  0  0
   -0.4809   -0.2781    0.0000 C   0  0  0  0  0  0  0  0  0  0  0  0
   -1.3475    0.2211    0.0000 C   0  0  0  0  0  0  0  0  0  0  0  0
   -1.3483    1.2213    0.0000 C   0  0  0  0  0  0  0  0  0  0  0  0
   -2.2145    1.7205    0.0000 O   0  0  0  0  0  0  0  0  0  0  0  0
   -3.0801    1.2197    0.0000 C   0  0  0  0  0  0  0  0  0  0  0  0
   -0.4825    1.7217    0.0000 C   0  0  0  0  0  0  0  0  0  0  0  0
   -0.4833    2.7219    0.0000 O   0  0  0  0  0  0  0  0  0  0  0  0
   -1.3497    3.2211    0.0000 C   0  0  0  0  0  0  0  0  0  0  0  0
    0.3839    1.2225    0.0000 C   0  0  0  0  0  0  0  0  0  0  0  0
    2.1183   -1.7761    0.0000 C   0  0  0  0  0  0  0  0  0  0  0  0
    2.1191   -2.7761    0.0000 R   0  0  0  0  0  0  0  0  0  0  0  0
    2.9839   -1.2753    0.0000 O   0  0  0  0  0  0  0  0  0  0  0  0
  1  2  1  0
  2  3  1  0
  2  4  1  0
  4  5  1  6
  5  6  1  0
  6  7  1  0
  7  8  2  0
  8  9  1  0
  9 10  1  0
 10 11  1  0
  9 12  2  0
 12 13  1  0
 13 14  1  0
 12 15  1  0
  4 16  1  0
 16 17  1  0
 16 18  2  0
 15  6  2  0
M  ISO  3   1   1   3   3  17   2
V    1 *
V    3 *
V   17 *
M  END
>  <symbol>  (785) 
D_Phe_34diOMe

>  <m_Rgroups>  (785) 
[H],[OH],[H],None,None,None

>  <m_abbr>  (785) 
D_Phe_34diOMe

>  <m_name>  (785) 
D-3,4-dimethoxyphenylalanine

>  <m_type>  (785) 
aa

>  <m_subtype>  (785) 
modified

>  <m_chem_types>  (785) 
1:backbone_n,2:backbone_c,3:backbone_n_mod

$$$$

     RDKit          2D

 17 17  0  0  0  0  0  0  0  0999 V2000
    0.3982   -2.5896    0.0000 R   0  0  0  0  0  0  0  0  0  0  0  0
    0.4018   -1.5896    0.0000 N   0  0  0  0  0  0  0  0  0  0  0  0
   -0.4624   -1.0866    0.0000 R   0  0  0  0  0  0  0  0  0  0  0  0
    1.2696   -1.0928    0.0000 C   0  0  0  0  0  0  0  0  0  0  0  0
    1.2732   -0.0928    0.0000 C   0  0  0  0  0  0  0  0  0  0  0  0
    0.4090    0.4102    0.0000 C   0  0  0  0  0  0  0  0  0  0  0  0
   -0.4588   -0.0866    0.0000 C   0  0  0  0  0  0  0  0  0  0  0  0
   -1.3230    0.4166    0.0000 C   0  0  0  0  0  0  0  0  0  0  0  0
   -1.3194    1.4164    0.0000 C   0  0  0  0  0  0  0  0  0  0  0  0
   -2.1836    1.9196    0.0000 C   0  0  0  0  0  0  0  0  0  0  0  0
   -3.0514    1.4226    0.0000 C   0  0  0  0  0  0  0  0  0  0  0  0
   -2.1800    2.9196    0.0000 C   0  0  0  0  0  0  0  0  0  0  0  0
   -0.4516    1.9134    0.0000 C   0  0  0  0  0  0  0  0  0  0  0  0
    0.4126    1.4102    0.0000 C   0  0  0  0  0  0  0  0  0  0  0  0
    2.1338   -1.5958    0.0000 C   0  0  0  0  0  0  0  0  0  0  0  0
    2.1302   -2.5958    0.0000 R   0  0  0  0  0  0  0  0  0  0  0  0
    3.0016   -1.0990    0.0000 O   0  0  0  0  0  0  0  0  0  0  0  0
  1  2  1  0
  2  3  1  0
  2  4  1  0
  4  5  1  6
  5  6  1  0
  6  7  1  0
  7  8  2  0
  8  9  1  0
  9 10  1  0
 10 11  1  0
 10 12  1  0
  9 13  2  0
 13 14  1  0
  4 15  1  0
 15 16  1  0
 15 17  2  0
 14  6  2  0
M  ISO  3   1   1   3   3  16   2
V    1 *
V    3 *
V   16 *
M  END
>  <symbol>  (786) 
D_Phe_4iPr

>  <m_Rgroups>  (786) 
[H],[OH],[H],None,None,None

>  <m_abbr>  (786) 
D_Phe_4iPr

>  <m_name>  (786) 
D-4-isopropylphenylalanine

>  <m_type>  (786) 
aa

>  <m_subtype>  (786) 
modified

>  <m_chem_types>  (786) 
1:backbone_n,2:backbone_c,3:backbone_n_mod

$$$$

     RDKit          2D

 10 10  0  0  0  0  0  0  0  0999 V2000
   -0.7621   -1.5117    0.0000 R   0  0  0  0  0  0  0  0  0  0  0  0
   -0.6045   -0.5241    0.0000 N   0  0  0  0  0  0  0  0  0  0  0  0
   -1.3107    0.1839    0.0000 C   0  0  0  0  0  0  0  0  0  0  0  0
   -0.8557    1.0743    0.0000 C   0  0  0  0  0  0  0  0  0  0  0  0
   -1.3085    1.9659    0.0000 C   0  0  0  0  0  0  0  0  0  0  0  0
    0.1319    0.9165    0.0000 C   0  0  0  0  0  0  0  0  0  0  0  0
    0.2871   -0.0713    0.0000 C   0  0  0  0  0  0  0  0  0  0  0  0
    1.1775   -0.5263    0.0000 C   0  0  0  0  0  0  0  0  0  0  0  0
    1.2287   -1.5249    0.0000 R   0  0  0  0  0  0  0  0  0  0  0  0
    2.0167    0.0173    0.0000 O   0  0  0  0  0  0  0  0  0  0  0  0
  1  2  1  0
  2  3  1  0
  3  4  1  0
  4  5  1  6
  4  6  1  0
  6  7  1  0
  7  8  1  6
  8  9  1  0
  8 10  2  0
  7  2  1  0
M  ISO  2   1   1   9   2
V    1 *
V    9 *
M  END
>  <symbol>  (787) 
D_Pro_4Me_c

>  <m_Rgroups>  (787) 
[H],[OH],None,None,None,None

>  <m_abbr>  (787) 
D_Pro_4Me_c

>  <m_name>  (787) 
D-4-methyl-L-proline (cis)

>  <m_type>  (787) 
aa

>  <m_subtype>  (787) 
modified

>  <m_chem_types>  (787) 
1:backbone_n,2:backbone_c

$$$$

     RDKit          2D

 10 10  0  0  0  0  0  0  0  0999 V2000
   -0.7621   -1.5117    0.0000 R   0  0  0  0  0  0  0  0  0  0  0  0
   -0.6045   -0.5241    0.0000 N   0  0  0  0  0  0  0  0  0  0  0  0
   -1.3107    0.1839    0.0000 C   0  0  0  0  0  0  0  0  0  0  0  0
   -0.8557    1.0743    0.0000 C   0  0  0  0  0  0  0  0  0  0  0  0
   -1.3085    1.9659    0.0000 C   0  0  0  0  0  0  0  0  0  0  0  0
    0.1319    0.9165    0.0000 C   0  0  0  0  0  0  0  0  0  0  0  0
    0.2871   -0.0713    0.0000 C   0  0  0  0  0  0  0  0  0  0  0  0
    1.1775   -0.5263    0.0000 C   0  0  0  0  0  0  0  0  0  0  0  0
    1.2287   -1.5249    0.0000 R   0  0  0  0  0  0  0  0  0  0  0  0
    2.0167    0.0173    0.0000 O   0  0  0  0  0  0  0  0  0  0  0  0
  1  2  1  0
  2  3  1  0
  3  4  1  0
  4  5  1  1
  4  6  1  0
  6  7  1  0
  7  8  1  6
  8  9  1  0
  8 10  2  0
  7  2  1  0
M  ISO  2   1   1   9   2
V    1 *
V    9 *
M  END
>  <symbol>  (788) 
D_Pro_4Me_t

>  <m_Rgroups>  (788) 
[H],[OH],None,None,None,None

>  <m_abbr>  (788) 
D_Pro_4Me_t

>  <m_name>  (788) 
D-4-methyl-L-proline (trans)

>  <m_type>  (788) 
aa

>  <m_subtype>  (788) 
modified

>  <m_chem_types>  (788) 
1:backbone_n,2:backbone_c

$$$$

     RDKit          2D

 12 12  0  0  0  0  0  0  0  0999 V2000
   -0.5065   -1.9135    0.0000 R   0  0  0  0  0  0  0  0  0  0  0  0
   -0.3487   -0.9261    0.0000 N   0  0  0  0  0  0  0  0  0  0  0  0
   -1.0549   -0.2181    0.0000 C   0  0  0  0  0  0  0  0  0  0  0  0
   -0.5999    0.6723    0.0000 C   0  0  0  0  0  0  0  0  0  0  0  0
   -1.0527    1.5639    0.0000 N   0  0  0  0  0  0  0  0  0  0  0  0
   -0.5071    2.4019    0.0000 R   0  0  0  0  0  0  0  0  0  0  0  0
   -2.0513    1.6175    0.0000 R   0  0  0  0  0  0  0  0  0  0  0  0
    0.3877    0.5147    0.0000 C   0  0  0  0  0  0  0  0  0  0  0  0
    0.5429   -0.4731    0.0000 C   0  0  0  0  0  0  0  0  0  0  0  0
    1.4333   -0.9283    0.0000 C   0  0  0  0  0  0  0  0  0  0  0  0
    1.4845   -1.9269    0.0000 R   0  0  0  0  0  0  0  0  0  0  0  0
    2.2725   -0.3847    0.0000 O   0  0  0  0  0  0  0  0  0  0  0  0
  1  2  1  0
  2  3  1  0
  3  4  1  0
  4  5  1  6
  5  6  1  0
  5  7  1  0
  4  8  1  0
  8  9  1  0
  9 10  1  6
 10 11  1  0
 10 12  2  0
  9  2  1  0
M  ISO  4   1   1   6   3   7   4  11   2
V    1 *
V    6 *
V    7 *
V   11 *
M  END
>  <symbol>  (789) 
D_Pro_4NH2_c

>  <m_Rgroups>  (789) 
[H],[OH],[H],[H],None,None

>  <m_abbr>  (789) 
D_Pro_4NH2_c

>  <m_name>  (789) 
D-4-amino-L-proline (cis)

>  <m_type>  (789) 
aa

>  <m_subtype>  (789) 
modified

>  <m_chem_types>  (789) 
1:backbone_n,2:backbone_c,3:amine_primary,4:amine_secondary

$$$$

     RDKit          2D

 12 12  0  0  0  0  0  0  0  0999 V2000
   -0.5065   -1.9135    0.0000 R   0  0  0  0  0  0  0  0  0  0  0  0
   -0.3487   -0.9261    0.0000 N   0  0  0  0  0  0  0  0  0  0  0  0
   -1.0549   -0.2181    0.0000 C   0  0  0  0  0  0  0  0  0  0  0  0
   -0.5999    0.6723    0.0000 C   0  0  0  0  0  0  0  0  0  0  0  0
   -1.0527    1.5639    0.0000 N   0  0  0  0  0  0  0  0  0  0  0  0
   -0.5071    2.4019    0.0000 R   0  0  0  0  0  0  0  0  0  0  0  0
   -2.0513    1.6175    0.0000 R   0  0  0  0  0  0  0  0  0  0  0  0
    0.3877    0.5147    0.0000 C   0  0  0  0  0  0  0  0  0  0  0  0
    0.5429   -0.4731    0.0000 C   0  0  0  0  0  0  0  0  0  0  0  0
    1.4333   -0.9283    0.0000 C   0  0  0  0  0  0  0  0  0  0  0  0
    1.4845   -1.9269    0.0000 R   0  0  0  0  0  0  0  0  0  0  0  0
    2.2725   -0.3847    0.0000 O   0  0  0  0  0  0  0  0  0  0  0  0
  1  2  1  0
  2  3  1  0
  3  4  1  0
  4  5  1  1
  5  6  1  0
  5  7  1  0
  4  8  1  0
  8  9  1  0
  9 10  1  6
 10 11  1  0
 10 12  2  0
  9  2  1  0
M  ISO  4   1   1   6   3   7   4  11   2
V    1 *
V    6 *
V    7 *
V   11 *
M  END
>  <symbol>  (790) 
D_Pro_4NH2_t

>  <m_Rgroups>  (790) 
[H],[OH],[H],[H],None,None

>  <m_abbr>  (790) 
D_Pro_4NH2_t

>  <m_name>  (790) 
D-4-amino-L-proline (trans)

>  <m_type>  (790) 
aa

>  <m_subtype>  (790) 
modified

>  <m_chem_types>  (790) 
1:backbone_n,2:backbone_c,3:amine_primary,4:amine_secondary

$$$$

     RDKit          2D

 13 13  0  0  0  0  0  0  0  0999 V2000
   -0.2470   -2.0100    0.0000 R   0  0  0  0  0  0  0  0  0  0  0  0
   -0.2484   -1.0100    0.0000 N   0  0  0  0  0  0  0  0  0  0  0  0
   -1.1150   -0.5110    0.0000 R   0  0  0  0  0  0  0  0  0  0  0  0
    0.6170   -0.5090    0.0000 C   0  0  0  0  0  0  0  0  0  0  0  0
    0.6158    0.4910    0.0000 C   0  0  0  0  0  0  0  0  0  0  0  0
   -0.2508    0.9898    0.0000 N   0  0  0  0  0  0  0  0  0  0  0  0
   -1.1638    0.5822    0.0000 C   0  0  0  0  0  0  0  0  0  0  0  0
   -1.8340    1.3246    0.0000 C   0  0  0  0  0  0  0  0  0  0  0  0
   -1.3348    2.1910    0.0000 C   0  0  0  0  0  0  0  0  0  0  0  0
   -0.3564    1.9846    0.0000 C   0  0  0  0  0  0  0  0  0  0  0  0
    1.4836   -1.0080    0.0000 C   0  0  0  0  0  0  0  0  0  0  0  0
    1.4848   -2.0080    0.0000 R   0  0  0  0  0  0  0  0  0  0  0  0
    2.3490   -0.5070    0.0000 O   0  0  0  0  0  0  0  0  0  0  0  0
  1  2  1  0
  2  3  1  0
  2  4  1  0
  4  5  1  6
  5  6  1  0
  6  7  1  0
  7  8  2  0
  8  9  1  0
  9 10  2  0
  4 11  1  0
 11 12  1  0
 11 13  2  0
 10  6  1  0
M  ISO  3   1   1   3   3  12   2
V    1 *
V    3 *
V   12 *
M  END
>  <symbol>  (791) 
D_Pyr1Ala

>  <m_Rgroups>  (791) 
[H],[OH],[H],None,None,None

>  <m_abbr>  (791) 
D_Pyr1Ala

>  <m_name>  (791) 
D-1-pyrazol-1-yl-alanine

>  <m_type>  (791) 
aa

>  <m_subtype>  (791) 
modified

>  <m_chem_types>  (791) 
1:backbone_n,2:backbone_c,3:backbone_n_mod

$$$$

     RDKit          2D

 13 12  0  0  0  0  0  0  0  0999 V2000
   -4.0960   -0.1954    0.0000 R   0  0  0  0  0  0  0  0  0  0  0  0
   -2.7929   -0.9383    0.0000 N   0  0  0  0  0  0  0  0  0  0  0  0
   -2.7847   -2.4383    0.0000 R   0  0  0  0  0  0  0  0  0  0  0  0
   -1.4979   -0.1812    0.0000 C   0  0  0  0  0  0  0  0  0  0  0  0
   -0.1948   -0.9242    0.0000 C   0  0  0  0  0  0  0  0  0  0  0  0
    1.1001   -0.1671    0.0000 O   0  0  0  0  0  0  0  0  0  0  0  0
    2.4032   -0.9100    0.0000 C   0  0  0  0  0  0  0  0  0  0  0  0
    3.6982   -0.1529    0.0000 C   0  0  0  0  0  0  0  0  0  0  0  0
    5.0013   -0.8959    0.0000 R   0  0  0  0  0  0  0  0  0  0  0  0
    3.6900    1.3470    0.0000 C   0  0  0  0  0  0  0  0  0  0  0  0
   -1.5061    1.3187    0.0000 C   0  0  0  0  0  0  0  0  0  0  0  0
   -0.2112    2.0758    0.0000 R   0  0  0  0  0  0  0  0  0  0  0  0
   -2.8092    2.0617    0.0000 O   0  0  0  0  0  0  0  0  0  0  0  0
  1  2  1  0
  2  3  1  0
  2  4  1  0
  4  5  1  1
  5  6  1  0
  6  7  1  0
  7  8  1  0
  8  9  1  0
  8 10  2  0
  4 11  1  0
 11 12  1  0
 11 13  2  0
M  ISO  4   1   1   3   3   9   4  12   2
V    1 *
V    3 *
V    9 *
V   12 *
M  END
>  <symbol>  (792) 
D_Ser_All

>  <m_Rgroups>  (792) 
[H],[OH],[H],[H],None,None

>  <m_abbr>  (792) 
D_Ser_All

>  <m_name>  (792) 
D-O-allylserine

>  <m_type>  (792) 
aa

>  <m_subtype>  (792) 
modified

>  <m_chem_types>  (792) 
1:backbone_n,2:backbone_c,3:backbone_n_mod

$$$$

     RDKit          2D

 14 13  0  0  0  0  0  0  0  0999 V2000
   -2.7837   -2.2500    0.0000 R   0  0  0  0  0  0  0  0  0  0  0  0
   -1.4846   -1.5000    0.0000 N   0  0  0  0  0  0  0  0  0  0  0  0
   -0.1856   -2.2500    0.0000 R   0  0  0  0  0  0  0  0  0  0  0  0
   -1.4846   -0.0000    0.0000 C   0  0  0  0  0  0  0  0  0  0  0  0
   -2.7837    0.7500    0.0000 C   0  0  0  0  0  0  0  0  0  0  0  0
   -2.7837    2.2500    0.0000 R   0  0  0  0  0  0  0  0  0  0  0  0
   -4.0827   -0.0000    0.0000 O   0  0  0  0  0  0  0  0  0  0  0  0
   -0.1856    0.7500    0.0000 C   0  0  0  0  0  0  0  0  0  0  0  0
   -0.1856    2.2500    0.0000 C   0  0  0  0  0  0  0  0  0  0  0  0
    1.1135    0.0000    0.0000 O   0  0  0  0  0  0  0  0  0  0  0  0
    2.4125    0.7500    0.0000 C   0  0  0  0  0  0  0  0  0  0  0  0
    3.7115    0.0000    0.0000 C   0  0  0  0  0  0  0  0  0  0  0  0
    5.0106    0.7500    0.0000 R   0  0  0  0  0  0  0  0  0  0  0  0
    3.7115   -1.5000    0.0000 C   0  0  0  0  0  0  0  0  0  0  0  0
  1  2  1  0
  2  3  1  0
  4  2  1  1
  4  5  1  0
  5  6  1  0
  5  7  2  0
  4  8  1  0
  8  9  1  1
  8 10  1  0
 10 11  1  0
 11 12  1  0
 12 13  1  0
 12 14  2  0
M  ISO  4   1   1   3   3   6   2  13   4
V    1 *
V    3 *
V    6 *
V   13 *
M  END
>  <symbol>  (793) 
D_Thr_All

>  <m_Rgroups>  (793) 
[H],[OH],[H],[H],None,None

>  <m_abbr>  (793) 
D_Thr_All

>  <m_name>  (793) 
D-O-allylthreonine

>  <m_type>  (793) 
aa

>  <m_subtype>  (793) 
modified

>  <m_chem_types>  (793) 
1:backbone_n,2:backbone_c,3:backbone_n_mod

$$$$

     RDKit          2D

 13 13  0  0  0  0  0  0  0  0999 V2000
   -0.2470   -2.0100    0.0000 R   0  0  0  0  0  0  0  0  0  0  0  0
   -0.2484   -1.0100    0.0000 N   0  0  0  0  0  0  0  0  0  0  0  0
   -1.1150   -0.5110    0.0000 R   0  0  0  0  0  0  0  0  0  0  0  0
    0.6170   -0.5090    0.0000 C   0  0  0  0  0  0  0  0  0  0  0  0
    0.6158    0.4910    0.0000 C   0  0  0  0  0  0  0  0  0  0  0  0
   -0.2508    0.9898    0.0000 N   0  0  0  0  0  0  0  0  0  0  0  0
   -0.3564    1.9846    0.0000 C   0  0  0  0  0  0  0  0  0  0  0  0
   -1.3348    2.1910    0.0000 C   0  0  0  0  0  0  0  0  0  0  0  0
   -1.8340    1.3246    0.0000 N   0  0  0  0  0  0  0  0  0  0  0  0
   -1.1638    0.5822    0.0000 N   0  0  0  0  0  0  0  0  0  0  0  0
    1.4836   -1.0080    0.0000 C   0  0  0  0  0  0  0  0  0  0  0  0
    1.4848   -2.0080    0.0000 R   0  0  0  0  0  0  0  0  0  0  0  0
    2.3490   -0.5070    0.0000 O   0  0  0  0  0  0  0  0  0  0  0  0
  1  2  1  0
  2  3  1  0
  2  4  1  0
  4  5  1  6
  5  6  1  0
  6  7  1  0
  7  8  2  0
  8  9  1  0
  9 10  2  0
  4 11  1  0
 11 12  1  0
 11 13  2  0
 10  6  1  0
M  ISO  3   1   1   3   3  12   2
V    1 *
V    3 *
V   12 *
M  END
>  <symbol>  (794) 
D_TriazAla

>  <m_Rgroups>  (794) 
[H],[OH],[H],None,None,None

>  <m_abbr>  (794) 
D_TriazAla

>  <m_name>  (794) 
D-1,2,4-triazol-1-yl-alanine

>  <m_type>  (794) 
aa

>  <m_subtype>  (794) 
modified

>  <m_chem_types>  (794) 
1:backbone_n,2:backbone_c,3:backbone_n_mod

$$$$

     RDKit          2D

 19 19  0  0  0  0  0  0  0  0999 V2000
   -4.1838    2.2752    0.0000 R   0  0  0  0  0  0  0  0  0  0  0  0
   -3.0808    1.2587    0.0000 N   0  0  0  0  0  0  0  0  0  0  0  0
   -1.6489    1.7056    0.0000 R   0  0  0  0  0  0  0  0  0  0  0  0
   -3.4096   -0.2049    0.0000 C   0  0  0  0  0  0  0  0  0  0  0  0
   -2.3066   -1.2214    0.0000 C   0  0  0  0  0  0  0  0  0  0  0  0
   -0.8748   -0.7744    0.0000 C   0  0  0  0  0  0  0  0  0  0  0  0
   -0.5459    0.6891    0.0000 C   0  0  0  0  0  0  0  0  0  0  0  0
    0.8859    1.1360    0.0000 C   0  0  0  0  0  0  0  0  0  0  0  0
    1.9890    0.1195    0.0000 C   0  0  0  0  0  0  0  0  0  0  0  0
    3.4208    0.5665    0.0000 O   0  0  0  0  0  0  0  0  0  0  0  0
    4.5238   -0.4501    0.0000 C   0  0  0  0  0  0  0  0  0  0  0  0
    5.9557   -0.0031    0.0000 C   0  0  0  0  0  0  0  0  0  0  0  0
    7.0587   -1.0197    0.0000 R   0  0  0  0  0  0  0  0  0  0  0  0
    6.2845    1.4604    0.0000 C   0  0  0  0  0  0  0  0  0  0  0  0
    1.6601   -1.3440    0.0000 C   0  0  0  0  0  0  0  0  0  0  0  0
    0.2282   -1.7910    0.0000 C   0  0  0  0  0  0  0  0  0  0  0  0
   -4.8415   -0.6518    0.0000 C   0  0  0  0  0  0  0  0  0  0  0  0
   -5.9445    0.3647    0.0000 R   0  0  0  0  0  0  0  0  0  0  0  0
   -5.1703   -2.1153    0.0000 O   0  0  0  0  0  0  0  0  0  0  0  0
  1  2  1  0
  2  3  1  0
  2  4  1  0
  4  5  1  6
  5  6  1  0
  6  7  1  0
  7  8  2  0
  8  9  1  0
  9 10  1  0
 10 11  1  0
 11 12  1  0
 12 13  1  0
 12 14  2  0
  9 15  2  0
 15 16  1  0
  4 17  1  0
 17 18  1  0
 17 19  2  0
 16  6  2  0
M  ISO  4   1   1   3   3  13   4  18   2
V    1 *
V    3 *
V   13 *
V   18 *
M  END
>  <symbol>  (795) 
D_Tyr_All

>  <m_Rgroups>  (795) 
[H],[OH],[H],[H],None,None

>  <m_abbr>  (795) 
D_Tyr_All

>  <m_name>  (795) 
D-O-allyltyrosine

>  <m_type>  (795) 
aa

>  <m_subtype>  (795) 
modified

>  <m_chem_types>  (795) 
1:backbone_n,2:backbone_c,3:backbone_n_mod

$$$$

     RDKit          2D

 18 17  0  0  0  0  0  0  0  0999 V2000
   -1.9653    3.6426    0.0000 R   0  0  0  0  0  0  0  0  0  0  0  0
   -1.9673    2.6428    0.0000 N   0  0  0  0  0  0  0  0  0  0  0  0
   -2.8343    2.1444    0.0000 R   0  0  0  0  0  0  0  0  0  0  0  0
   -1.1023    2.1410    0.0000 C   0  0  0  0  0  0  0  0  0  0  0  0
   -1.1043    1.1410    0.0000 C   0  0  0  0  0  0  0  0  0  0  0  0
   -0.2393    0.6394    0.0000 C   0  0  0  0  0  0  0  0  0  0  0  0
   -0.2413   -0.3606    0.0000 C   0  0  0  0  0  0  0  0  0  0  0  0
    0.6237   -0.8624    0.0000 C   0  0  0  0  0  0  0  0  0  0  0  0
    0.6217   -1.8624    0.0000 N   0  0  0  0  0  0  0  0  0  0  0  0
   -0.2453   -2.3606    0.0000 R   0  0  0  0  0  0  0  0  0  0  0  0
    1.4867   -2.3640    0.0000 C   0  0  0  0  0  0  0  0  0  0  0  0
    2.3537   -1.8658    0.0000 O   0  0  0  0  0  0  0  0  0  0  0  0
    1.4847   -3.3640    0.0000 N   0  0  0  0  0  0  0  0  0  0  0  0
    2.3497   -3.8658    0.0000 R   0  0  0  0  0  0  0  0  0  0  0  0
    0.6177   -3.8624    0.0000 R   0  0  0  0  0  0  0  0  0  0  0  0
   -0.2353    2.6392    0.0000 C   0  0  0  0  0  0  0  0  0  0  0  0
    0.6297    2.1376    0.0000 R   0  0  0  0  0  0  0  0  0  0  0  0
   -0.2333    3.6392    0.0000 O   0  0  0  0  0  0  0  0  0  0  0  0
  1  2  1  0
  2  3  1  0
  2  4  1  0
  4  5  1  1
  5  6  1  0
  6  7  1  0
  7  8  1  0
  8  9  1  0
  9 10  1  0
  9 11  1  0
 11 12  2  0
 11 13  1  0
 13 14  1  0
 13 15  1  0
  4 16  1  0
 16 17  1  0
 16 18  2  0
M  ISO  6   1   1   3   3  10   5  14   4  15   6  17   2
V    1 *
V    3 *
V   10 *
V   14 *
V   15 *
V   17 *
M  END
>  <symbol>  (796) 
D_hCit

>  <m_Rgroups>  (796) 
[H],[OH],[H],[H],[H],[H]

>  <m_abbr>  (796) 
D_hCit

>  <m_name>  (796) 
D-homocitrulline

>  <m_type>  (796) 
aa

>  <m_subtype>  (796) 
modified

>  <m_chem_types>  (796) 
1:backbone_n,2:backbone_c,3:backbone_n_mod,4:amine_primary,5:amide_nh,6:amine_secondary

$$$$

     RDKit          2D

 11 10  0  0  0  0  0  0  0  0999 V2000
   -0.9253   -1.3512    0.0000 R   0  0  0  0  0  0  0  0  0  0  0  0
   -0.6709   -0.3842    0.0000 N   0  0  0  0  0  0  0  0  0  0  0  0
   -1.3813    0.3198    0.0000 R   0  0  0  0  0  0  0  0  0  0  0  0
    0.2939   -0.1208    0.0000 C   0  0  0  0  0  0  0  0  0  0  0  0
    0.0395   -1.0880    0.0000 C   0  0  0  0  0  0  0  0  0  0  0  0
    0.0305    0.8438    0.0000 C   0  0  0  0  0  0  0  0  0  0  0  0
   -0.9365    1.0982    0.0000 S   0  0  0  0  0  0  0  0  0  0  0  0
   -1.1997    2.0628    0.0000 R   0  0  0  0  0  0  0  0  0  0  0  0
    1.2609   -0.3752    0.0000 C   0  0  0  0  0  0  0  0  0  0  0  0
    1.5241   -1.3400    0.0000 R   0  0  0  0  0  0  0  0  0  0  0  0
    1.9647    0.3352    0.0000 O   0  0  0  0  0  0  0  0  0  0  0  0
  1  2  1  0
  2  3  1  0
  2  4  1  0
  4  5  1  1
  4  6  1  0
  6  7  1  0
  7  8  1  0
  4  9  1  0
  9 10  1  0
  9 11  2  0
M  ISO  4   1   1   3   3   8   4  10   2
V    1 *
V    3 *
V    8 *
V   10 *
M  END
>  <symbol>  (797) 
D_aMeCys

>  <m_Rgroups>  (797) 
[H],[OH],[H],[H],None,None

>  <m_abbr>  (797) 
D_aMeCys

>  <m_name>  (797) 
D-alpha-methylcysteine

>  <m_type>  (797) 
aa

>  <m_subtype>  (797) 
modified

>  <m_chem_types>  (797) 
1:backbone_n,2:backbone_c,3:backbone_n_mod,4:thiol

$$$$

     RDKit          2D

 15 15  0  0  0  0  0  0  0  0999 V2000
   -1.3182   -1.1157    0.0000 R   0  0  0  0  0  0  0  0  0  0  0  0
   -0.3530   -1.3767    0.0000 N   0  0  0  0  0  0  0  0  0  0  0  0
   -0.0964   -2.3433    0.0000 R   0  0  0  0  0  0  0  0  0  0  0  0
    0.3556   -0.6711    0.0000 C   0  0  0  0  0  0  0  0  0  0  0  0
   -0.6098   -0.4101    0.0000 C   0  0  0  0  0  0  0  0  0  0  0  0
    0.6166    0.2941    0.0000 C   0  0  0  0  0  0  0  0  0  0  0  0
   -0.0890    1.0027    0.0000 C   0  0  0  0  0  0  0  0  0  0  0  0
   -1.0770    0.8485    0.0000 C   0  0  0  0  0  0  0  0  0  0  0  0
   -1.5290    1.7403    0.0000 N   0  0  0  0  0  0  0  0  0  0  0  0
   -0.8204    2.4459    0.0000 C   0  0  0  0  0  0  0  0  0  0  0  0
    0.0696    1.9901    0.0000 N   0  0  0  0  0  0  0  0  0  0  0  0
    0.9616    2.4423    0.0000 R   0  0  0  0  0  0  0  0  0  0  0  0
    1.0612   -1.3797    0.0000 C   0  0  0  0  0  0  0  0  0  0  0  0
    0.8004   -2.3449    0.0000 R   0  0  0  0  0  0  0  0  0  0  0  0
    2.0278   -1.1231    0.0000 O   0  0  0  0  0  0  0  0  0  0  0  0
  1  2  1  0
  2  3  1  0
  2  4  1  0
  4  5  1  1
  4  6  1  0
  6  7  1  0
  7  8  2  0
  8  9  1  0
  9 10  2  0
 10 11  1  0
 11 12  1  0
  4 13  1  0
 13 14  1  0
 13 15  2  0
 11  7  1  0
M  ISO  4   1   1   3   3  12   4  14   2
V    1 *
V    3 *
V   12 *
V   14 *
M  END
>  <symbol>  (798) 
D_aMeHis

>  <m_Rgroups>  (798) 
[H],[OH],[H],[H],None,None

>  <m_abbr>  (798) 
D_aMeHis

>  <m_name>  (798) 
D-alpha-methylhistidine

>  <m_type>  (798) 
aa

>  <m_subtype>  (798) 
modified

>  <m_chem_types>  (798) 
1:backbone_n,2:backbone_c,3:backbone_n_mod,4:aromatic_nh

$$$$

     RDKit          2D

 15 14  0  0  0  0  0  0  0  0999 V2000
   -0.2773   -2.2263    0.0000 R   0  0  0  0  0  0  0  0  0  0  0  0
   -0.0229   -1.2593    0.0000 N   0  0  0  0  0  0  0  0  0  0  0  0
   -0.7333   -0.5555    0.0000 R   0  0  0  0  0  0  0  0  0  0  0  0
    0.9419   -0.9961    0.0000 C   0  0  0  0  0  0  0  0  0  0  0  0
    0.6875   -1.9631    0.0000 C   0  0  0  0  0  0  0  0  0  0  0  0
    0.6785   -0.0313    0.0000 C   0  0  0  0  0  0  0  0  0  0  0  0
   -0.2885    0.2231    0.0000 C   0  0  0  0  0  0  0  0  0  0  0  0
   -0.5517    1.1877    0.0000 C   0  0  0  0  0  0  0  0  0  0  0  0
   -1.5189    1.4421    0.0000 C   0  0  0  0  0  0  0  0  0  0  0  0
   -1.7821    2.4067    0.0000 N   0  0  0  0  0  0  0  0  0  0  0  0
   -2.7491    2.6611    0.0000 R   0  0  0  0  0  0  0  0  0  0  0  0
   -1.0783    3.1171    0.0000 R   0  0  0  0  0  0  0  0  0  0  0  0
    1.9089   -1.2505    0.0000 C   0  0  0  0  0  0  0  0  0  0  0  0
    2.1721   -2.2151    0.0000 R   0  0  0  0  0  0  0  0  0  0  0  0
    2.6127   -0.5401    0.0000 O   0  0  0  0  0  0  0  0  0  0  0  0
  1  2  1  0
  2  3  1  0
  2  4  1  0
  4  5  1  1
  4  6  1  0
  6  7  1  0
  7  8  1  0
  8  9  1  0
  9 10  1  0
 10 11  1  0
 10 12  1  0
  4 13  1  0
 13 14  1  0
 13 15  2  0
M  ISO  5   1   1   3   3  11   4  12   5  14   2
V    1 *
V    3 *
V   11 *
V   12 *
V   14 *
M  END
>  <symbol>  (799) 
D_aMeLys

>  <m_Rgroups>  (799) 
[H],[OH],[H],[H],[H],None

>  <m_abbr>  (799) 
D_aMeLys

>  <m_name>  (799) 
D-alpha-methyllysine

>  <m_type>  (799) 
aa

>  <m_subtype>  (799) 
modified

>  <m_chem_types>  (799) 
1:backbone_n,2:backbone_c,3:backbone_n_mod,4:amine_primary,5:amine_secondary

$$$$

     RDKit          2D

 12 11  0  0  0  0  0  0  0  0999 V2000
   -0.7447   -1.5444    0.0000 R   0  0  0  0  0  0  0  0  0  0  0  0
   -0.4903   -0.5772    0.0000 N   0  0  0  0  0  0  0  0  0  0  0  0
   -1.2007    0.1266    0.0000 R   0  0  0  0  0  0  0  0  0  0  0  0
    0.4745   -0.3140    0.0000 C   0  0  0  0  0  0  0  0  0  0  0  0
    0.2201   -1.2812    0.0000 C   0  0  0  0  0  0  0  0  0  0  0  0
    0.2113    0.6506    0.0000 C   0  0  0  0  0  0  0  0  0  0  0  0
   -0.7559    0.9050    0.0000 C   0  0  0  0  0  0  0  0  0  0  0  0
   -1.0191    1.8698    0.0000 S   0  0  0  0  0  0  0  0  0  0  0  0
   -1.9863    2.1242    0.0000 C   0  0  0  0  0  0  0  0  0  0  0  0
    1.4415   -0.5684    0.0000 C   0  0  0  0  0  0  0  0  0  0  0  0
    1.7047   -1.5330    0.0000 R   0  0  0  0  0  0  0  0  0  0  0  0
    2.1453    0.1420    0.0000 O   0  0  0  0  0  0  0  0  0  0  0  0
  1  2  1  0
  2  3  1  0
  2  4  1  0
  4  5  1  1
  4  6  1  0
  6  7  1  0
  7  8  1  0
  8  9  1  0
  4 10  1  0
 10 11  1  0
 10 12  2  0
M  ISO  3   1   1   3   3  11   2
V    1 *
V    3 *
V   11 *
M  END
>  <symbol>  (800) 
D_aMeMet

>  <m_Rgroups>  (800) 
[H],[OH],[H],None,None,None

>  <m_abbr>  (800) 
D_aMeMet

>  <m_name>  (800) 
D-alpha-methylmethionine

>  <m_type>  (800) 
aa

>  <m_subtype>  (800) 
modified

>  <m_chem_types>  (800) 
1:backbone_n,2:backbone_c,3:backbone_n_mod

$$$$

     RDKit          2D

 12 11  0  0  0  0  0  0  0  0999 V2000
   -0.7447   -1.5444    0.0000 R   0  0  0  0  0  0  0  0  0  0  0  0
   -0.4903   -0.5772    0.0000 N   0  0  0  0  0  0  0  0  0  0  0  0
   -1.2007    0.1266    0.0000 R   0  0  0  0  0  0  0  0  0  0  0  0
    0.4745   -0.3140    0.0000 C   0  0  0  0  0  0  0  0  0  0  0  0
    0.2201   -1.2812    0.0000 C   0  0  0  0  0  0  0  0  0  0  0  0
    0.2113    0.6506    0.0000 C   0  0  0  0  0  0  0  0  0  0  0  0
   -0.7559    0.9050    0.0000 C   0  0  0  0  0  0  0  0  0  0  0  0
   -1.0191    1.8698    0.0000 C   0  0  0  0  0  0  0  0  0  0  0  0
   -1.9863    2.1242    0.0000 C   0  0  0  0  0  0  0  0  0  0  0  0
    1.4415   -0.5684    0.0000 C   0  0  0  0  0  0  0  0  0  0  0  0
    1.7047   -1.5330    0.0000 R   0  0  0  0  0  0  0  0  0  0  0  0
    2.1453    0.1420    0.0000 O   0  0  0  0  0  0  0  0  0  0  0  0
  1  2  1  0
  2  3  1  0
  2  4  1  0
  4  5  1  1
  4  6  1  0
  6  7  1  0
  7  8  1  0
  8  9  1  0
  4 10  1  0
 10 11  1  0
 10 12  2  0
M  ISO  3   1   1   3   3  11   2
V    1 *
V    3 *
V   11 *
M  END
>  <symbol>  (801) 
D_aMeNle

>  <m_Rgroups>  (801) 
[H],[OH],[H],None,None,None

>  <m_abbr>  (801) 
D_aMeNle

>  <m_name>  (801) 
D-alpha-methylnorleucine

>  <m_type>  (801) 
aa

>  <m_subtype>  (801) 
modified

>  <m_chem_types>  (801) 
1:backbone_n,2:backbone_c,3:backbone_n_mod

$$$$

     RDKit          2D

 11 10  0  0  0  0  0  0  0  0999 V2000
   -0.9253   -1.3512    0.0000 R   0  0  0  0  0  0  0  0  0  0  0  0
   -0.6709   -0.3842    0.0000 N   0  0  0  0  0  0  0  0  0  0  0  0
   -1.3813    0.3198    0.0000 R   0  0  0  0  0  0  0  0  0  0  0  0
    0.2939   -0.1208    0.0000 C   0  0  0  0  0  0  0  0  0  0  0  0
    0.0395   -1.0880    0.0000 C   0  0  0  0  0  0  0  0  0  0  0  0
    0.0305    0.8438    0.0000 C   0  0  0  0  0  0  0  0  0  0  0  0
   -0.9365    1.0982    0.0000 C   0  0  0  0  0  0  0  0  0  0  0  0
   -1.1997    2.0628    0.0000 C   0  0  0  0  0  0  0  0  0  0  0  0
    1.2609   -0.3752    0.0000 C   0  0  0  0  0  0  0  0  0  0  0  0
    1.5241   -1.3400    0.0000 R   0  0  0  0  0  0  0  0  0  0  0  0
    1.9647    0.3352    0.0000 O   0  0  0  0  0  0  0  0  0  0  0  0
  1  2  1  0
  2  3  1  0
  2  4  1  0
  4  5  1  1
  4  6  1  0
  6  7  1  0
  7  8  1  0
  4  9  1  0
  9 10  1  0
  9 11  2  0
M  ISO  3   1   1   3   3  10   2
V    1 *
V    3 *
V   10 *
M  END
>  <symbol>  (802) 
D_aMeNva

>  <m_Rgroups>  (802) 
[H],[OH],[H],None,None,None

>  <m_abbr>  (802) 
D_aMeNva

>  <m_name>  (802) 
D-alpha-methylnorvaline

>  <m_type>  (802) 
aa

>  <m_subtype>  (802) 
modified

>  <m_chem_types>  (802) 
1:backbone_n,2:backbone_c,3:backbone_n_mod

$$$$

     RDKit          2D

 10 10  0  0  0  0  0  0  0  0999 V2000
   -0.3376   -1.3559    0.0000 R   0  0  0  0  0  0  0  0  0  0  0  0
   -0.5478   -0.3781    0.0000 N   0  0  0  0  0  0  0  0  0  0  0  0
   -1.4622    0.0265    0.0000 C   0  0  0  0  0  0  0  0  0  0  0  0
   -1.3598    1.0213    0.0000 C   0  0  0  0  0  0  0  0  0  0  0  0
   -0.3822    1.2313    0.0000 C   0  0  0  0  0  0  0  0  0  0  0  0
    0.1198    0.3665    0.0000 C   0  0  0  0  0  0  0  0  0  0  0  0
    0.9276    0.9561    0.0000 C   0  0  0  0  0  0  0  0  0  0  0  0
    0.7906   -0.3753    0.0000 C   0  0  0  0  0  0  0  0  0  0  0  0
    0.4836   -1.3269    0.0000 R   0  0  0  0  0  0  0  0  0  0  0  0
    1.7682   -0.1651    0.0000 O   0  0  0  0  0  0  0  0  0  0  0  0
  1  2  1  0
  2  3  1  0
  3  4  1  0
  4  5  1  0
  5  6  1  0
  6  7  1  1
  6  8  1  0
  8  9  1  0
  8 10  2  0
  6  2  1  0
M  ISO  2   1   1   9   2
V    1 *
V    9 *
M  END
>  <symbol>  (803) 
D_aMePro

>  <m_Rgroups>  (803) 
[H],[OH],None,None,None,None

>  <m_abbr>  (803) 
D_aMePro

>  <m_name>  (803) 
D-alpha-methylproline

>  <m_type>  (803) 
aa

>  <m_subtype>  (803) 
modified

>  <m_chem_types>  (803) 
1:backbone_n,2:backbone_c

$$$$

     RDKit          2D

 12 11  0  0  0  0  0  0  0  0999 V2000
   -1.9405   -1.0935    0.0000 R   0  0  0  0  0  0  0  0  0  0  0  0
   -0.4893   -1.4732    0.0000 N   0  0  0  0  0  0  0  0  0  0  0  0
   -0.0926   -2.9197    0.0000 R   0  0  0  0  0  0  0  0  0  0  0  0
    0.5651   -0.4063    0.0000 C   0  0  0  0  0  0  0  0  0  0  0  0
    1.6320   -1.4607    0.0000 C   0  0  0  0  0  0  0  0  0  0  0  0
    1.6195    0.6606    0.0000 C   0  0  0  0  0  0  0  0  0  0  0  0
    1.2227    2.1072    0.0000 R   0  0  0  0  0  0  0  0  0  0  0  0
    3.0706    0.2809    0.0000 O   0  0  0  0  0  0  0  0  0  0  0  0
   -0.5018    0.6481    0.0000 C   0  0  0  0  0  0  0  0  0  0  0  0
   -0.1221    2.0993    0.0000 C   0  0  0  0  0  0  0  0  0  0  0  0
   -1.9484    0.2514    0.0000 O   0  0  0  0  0  0  0  0  0  0  0  0
   -3.0153    1.3058    0.0000 R   0  0  0  0  0  0  0  0  0  0  0  0
  1  2  1  0
  2  3  1  0
  2  4  1  0
  4  5  1  1
  4  6  1  0
  6  7  1  0
  6  8  2  0
  4  9  1  0
  9 10  1  6
  9 11  1  0
 11 12  1  0
M  ISO  4   1   1   3   3   7   2  12   4
V    1 *
V    3 *
V    7 *
V   12 *
M  END
>  <symbol>  (804) 
D_aMeThr

>  <m_Rgroups>  (804) 
[H],[OH],[H],[H],None,None

>  <m_abbr>  (804) 
D_aMeThr

>  <m_name>  (804) 
D-alpha-methylthreonine

>  <m_type>  (804) 
aa

>  <m_subtype>  (804) 
modified

>  <m_chem_types>  (804) 
1:backbone_n,2:backbone_c,3:backbone_n_mod

$$$$

     RDKit          2D

 19 19  0  0  0  0  0  0  0  0999 V2000
   -0.8405   -1.8458    0.0000 R   0  0  0  0  0  0  0  0  0  0  0  0
    0.1261   -2.1020    0.0000 N   0  0  0  0  0  0  0  0  0  0  0  0
    0.3875   -3.0672    0.0000 R   0  0  0  0  0  0  0  0  0  0  0  0
    0.8313   -1.3932    0.0000 C   0  0  0  0  0  0  0  0  0  0  0  0
   -0.1353   -1.1368    0.0000 C   0  0  0  0  0  0  0  0  0  0  0  0
    1.0877   -0.4266    0.0000 C   0  0  0  0  0  0  0  0  0  0  0  0
    0.3787    0.2788    0.0000 C   0  0  0  0  0  0  0  0  0  0  0  0
   -0.5865    0.0174    0.0000 C   0  0  0  0  0  0  0  0  0  0  0  0
   -1.2953    0.7226    0.0000 C   0  0  0  0  0  0  0  0  0  0  0  0
   -1.0391    1.6892    0.0000 C   0  0  0  0  0  0  0  0  0  0  0  0
   -1.7479    2.3946    0.0000 O   0  0  0  0  0  0  0  0  0  0  0  0
   -2.7133    2.1332    0.0000 R   0  0  0  0  0  0  0  0  0  0  0  0
   -0.0739    1.9506    0.0000 C   0  0  0  0  0  0  0  0  0  0  0  0
    0.1825    2.9172    0.0000 O   0  0  0  0  0  0  0  0  0  0  0  0
   -0.5265    3.6224    0.0000 R   0  0  0  0  0  0  0  0  0  0  0  0
    0.6351    1.2454    0.0000 C   0  0  0  0  0  0  0  0  0  0  0  0
    1.5403   -2.0984    0.0000 C   0  0  0  0  0  0  0  0  0  0  0  0
    1.2839   -3.0650    0.0000 R   0  0  0  0  0  0  0  0  0  0  0  0
    2.5055   -1.8370    0.0000 O   0  0  0  0  0  0  0  0  0  0  0  0
  1  2  1  0
  2  3  1  0
  2  4  1  0
  4  5  1  1
  4  6  1  0
  6  7  1  0
  7  8  1  0
  8  9  2  0
  9 10  1  0
 10 11  1  0
 11 12  1  0
 10 13  2  0
 13 14  1  0
 14 15  1  0
 13 16  1  0
  4 17  1  0
 17 18  1  0
 17 19  2  0
 16  7  2  0
M  ISO  5   1   1   3   3  12   4  15   5  18   2
V    1 *
V    3 *
V   12 *
V   15 *
V   18 *
M  END
>  <symbol>  (805) 
D_aMeTyr_3OH

>  <m_Rgroups>  (805) 
[H],[OH],[H],[H],[H],None

>  <m_abbr>  (805) 
D_aMeTyr_3OH

>  <m_name>  (805) 
D-alpha-methyl-3-hydroxytyrosine

>  <m_type>  (805) 
aa

>  <m_subtype>  (805) 
modified

>  <m_chem_types>  (805) 
1:backbone_n,2:backbone_c,3:backbone_n_mod,4:hydroxyl_phenolic,5:hydroxyl_phenolic

$$$$

     RDKit          2D

 16 16  0  0  0  0  0  0  0  0999 V2000
   -1.0372   -1.2992    0.0000 R   0  0  0  0  0  0  0  0  0  0  0  0
   -0.0718   -1.5596    0.0000 N   0  0  0  0  0  0  0  0  0  0  0  0
    0.1852   -2.5260    0.0000 R   0  0  0  0  0  0  0  0  0  0  0  0
    0.6364   -0.8538    0.0000 C   0  0  0  0  0  0  0  0  0  0  0  0
   -0.3290   -0.5932    0.0000 C   0  0  0  0  0  0  0  0  0  0  0  0
    0.8970    0.1116    0.0000 C   0  0  0  0  0  0  0  0  0  0  0  0
    0.1912    0.8200    0.0000 C   0  0  0  0  0  0  0  0  0  0  0  0
   -0.7752    0.5628    0.0000 C   0  0  0  0  0  0  0  0  0  0  0  0
   -1.4810    1.2712    0.0000 C   0  0  0  0  0  0  0  0  0  0  0  0
   -1.2204    2.2366    0.0000 C   0  0  0  0  0  0  0  0  0  0  0  0
   -1.9262    2.9450    0.0000 Cl  0  0  0  0  0  0  0  0  0  0  0  0
   -0.2540    2.4938    0.0000 C   0  0  0  0  0  0  0  0  0  0  0  0
    0.4518    1.7854    0.0000 C   0  0  0  0  0  0  0  0  0  0  0  0
    1.3424   -1.5622    0.0000 C   0  0  0  0  0  0  0  0  0  0  0  0
    1.0818   -2.5276    0.0000 R   0  0  0  0  0  0  0  0  0  0  0  0
    2.3088   -1.3052    0.0000 O   0  0  0  0  0  0  0  0  0  0  0  0
  1  2  1  0
  2  3  1  0
  2  4  1  0
  4  5  1  1
  4  6  1  0
  6  7  1  0
  7  8  1  0
  8  9  2  0
  9 10  1  0
 10 11  1  0
 10 12  2  0
 12 13  1  0
  4 14  1  0
 14 15  1  0
 14 16  2  0
 13  7  2  0
M  ISO  3   1   1   3   3  15   2
V    1 *
V    3 *
V   15 *
M  END
>  <symbol>  (806) 
D_aMePhe_4Cl

>  <m_Rgroups>  (806) 
[H],[OH],[H],None,None,None

>  <m_abbr>  (806) 
D_aMePhe_4Cl

>  <m_name>  (806) 
D-alpha-methyl-4-chlorophenylalanine

>  <m_type>  (806) 
aa

>  <m_subtype>  (806) 
modified

>  <m_chem_types>  (806) 
1:backbone_n,2:backbone_c,3:backbone_n_mod

$$$$

     RDKit          2D

 16 16  0  0  0  0  0  0  0  0999 V2000
   -1.0372   -1.2992    0.0000 R   0  0  0  0  0  0  0  0  0  0  0  0
   -0.0718   -1.5596    0.0000 N   0  0  0  0  0  0  0  0  0  0  0  0
    0.1852   -2.5260    0.0000 R   0  0  0  0  0  0  0  0  0  0  0  0
    0.6364   -0.8538    0.0000 C   0  0  0  0  0  0  0  0  0  0  0  0
   -0.3290   -0.5932    0.0000 C   0  0  0  0  0  0  0  0  0  0  0  0
    0.8970    0.1116    0.0000 C   0  0  0  0  0  0  0  0  0  0  0  0
    0.1912    0.8200    0.0000 C   0  0  0  0  0  0  0  0  0  0  0  0
   -0.7752    0.5628    0.0000 C   0  0  0  0  0  0  0  0  0  0  0  0
   -1.4810    1.2712    0.0000 C   0  0  0  0  0  0  0  0  0  0  0  0
   -1.2204    2.2366    0.0000 C   0  0  0  0  0  0  0  0  0  0  0  0
   -1.9262    2.9450    0.0000 F   0  0  0  0  0  0  0  0  0  0  0  0
   -0.2540    2.4938    0.0000 C   0  0  0  0  0  0  0  0  0  0  0  0
    0.4518    1.7854    0.0000 C   0  0  0  0  0  0  0  0  0  0  0  0
    1.3424   -1.5622    0.0000 C   0  0  0  0  0  0  0  0  0  0  0  0
    1.0818   -2.5276    0.0000 R   0  0  0  0  0  0  0  0  0  0  0  0
    2.3088   -1.3052    0.0000 O   0  0  0  0  0  0  0  0  0  0  0  0
  1  2  1  0
  2  3  1  0
  2  4  1  0
  4  5  1  1
  4  6  1  0
  6  7  1  0
  7  8  1  0
  8  9  2  0
  9 10  1  0
 10 11  1  0
 10 12  2  0
 12 13  1  0
  4 14  1  0
 14 15  1  0
 14 16  2  0
 13  7  2  0
M  ISO  3   1   1   3   3  15   2
V    1 *
V    3 *
V   15 *
M  END
>  <symbol>  (807) 
D_aMePhe_4F

>  <m_Rgroups>  (807) 
[H],[OH],[H],None,None,None

>  <m_abbr>  (807) 
D_aMePhe_4F

>  <m_name>  (807) 
D-alpha-methyl-4-fluorophenylalanine

>  <m_type>  (807) 
aa

>  <m_subtype>  (807) 
modified

>  <m_chem_types>  (807) 
1:backbone_n,2:backbone_c,3:backbone_n_mod

$$$$

     RDKit          2D

 17 17  0  0  0  0  0  0  0  0999 V2000
   -0.9392   -1.5290    0.0000 R   0  0  0  0  0  0  0  0  0  0  0  0
    0.0262   -1.7896    0.0000 N   0  0  0  0  0  0  0  0  0  0  0  0
    0.2832   -2.7560    0.0000 R   0  0  0  0  0  0  0  0  0  0  0  0
    0.7346   -1.0838    0.0000 C   0  0  0  0  0  0  0  0  0  0  0  0
   -0.2310   -0.8232    0.0000 C   0  0  0  0  0  0  0  0  0  0  0  0
    0.9950   -0.1184    0.0000 C   0  0  0  0  0  0  0  0  0  0  0  0
    0.2892    0.5900    0.0000 C   0  0  0  0  0  0  0  0  0  0  0  0
   -0.6772    0.3330    0.0000 C   0  0  0  0  0  0  0  0  0  0  0  0
   -1.3830    1.0412    0.0000 C   0  0  0  0  0  0  0  0  0  0  0  0
   -1.1224    2.0066    0.0000 C   0  0  0  0  0  0  0  0  0  0  0  0
   -1.8282    2.7150    0.0000 O   0  0  0  0  0  0  0  0  0  0  0  0
   -1.5676    3.6804    0.0000 C   0  0  0  0  0  0  0  0  0  0  0  0
   -0.1560    2.2638    0.0000 C   0  0  0  0  0  0  0  0  0  0  0  0
    0.5498    1.5554    0.0000 C   0  0  0  0  0  0  0  0  0  0  0  0
    1.4404   -1.7922    0.0000 C   0  0  0  0  0  0  0  0  0  0  0  0
    1.1798   -2.7576    0.0000 R   0  0  0  0  0  0  0  0  0  0  0  0
    2.4068   -1.5350    0.0000 O   0  0  0  0  0  0  0  0  0  0  0  0
  1  2  1  0
  2  3  1  0
  2  4  1  0
  4  5  1  1
  4  6  1  0
  6  7  1  0
  7  8  1  0
  8  9  2  0
  9 10  1  0
 10 11  1  0
 11 12  1  0
 10 13  2  0
 13 14  1  0
  4 15  1  0
 15 16  1  0
 15 17  2  0
 14  7  2  0
M  ISO  3   1   1   3   3  16   2
V    1 *
V    3 *
V   16 *
M  END
>  <symbol>  (808) 
D_aMePhe_4OMe

>  <m_Rgroups>  (808) 
[H],[OH],[H],None,None,None

>  <m_abbr>  (808) 
D_aMePhe_4OMe

>  <m_name>  (808) 
D-alpha-methyl-4-methoxyphenylalanine

>  <m_type>  (808) 
aa

>  <m_subtype>  (808) 
modified

>  <m_chem_types>  (808) 
1:backbone_n,2:backbone_c,3:backbone_n_mod

$$$$

     RDKit          2D

 14 13  0  0  0  0  0  0  0  0999 V2000
   -0.3919   -1.8660    0.0000 R   0  0  0  0  0  0  0  0  0  0  0  0
   -0.1375   -0.8988    0.0000 N   0  0  0  0  0  0  0  0  0  0  0  0
   -0.8479   -0.1950    0.0000 R   0  0  0  0  0  0  0  0  0  0  0  0
    0.8273   -0.6356    0.0000 C   0  0  0  0  0  0  0  0  0  0  0  0
    0.5729   -1.6028    0.0000 C   0  0  0  0  0  0  0  0  0  0  0  0
    0.5639    0.3290    0.0000 C   0  0  0  0  0  0  0  0  0  0  0  0
   -0.4031    0.5834    0.0000 C   0  0  0  0  0  0  0  0  0  0  0  0
   -0.6663    1.5482    0.0000 C   0  0  0  0  0  0  0  0  0  0  0  0
   -1.6335    1.8024    0.0000 N   0  0  0  0  0  0  0  0  0  0  0  0
   -1.8967    2.7672    0.0000 R   0  0  0  0  0  0  0  0  0  0  0  0
   -2.3373    1.0922    0.0000 R   0  0  0  0  0  0  0  0  0  0  0  0
    1.7943   -0.8900    0.0000 C   0  0  0  0  0  0  0  0  0  0  0  0
    2.0575   -1.8546    0.0000 R   0  0  0  0  0  0  0  0  0  0  0  0
    2.4981   -0.1796    0.0000 O   0  0  0  0  0  0  0  0  0  0  0  0
  1  2  1  0
  2  3  1  0
  2  4  1  0
  4  5  1  6
  4  6  1  0
  6  7  1  0
  7  8  1  0
  8  9  1  0
  9 10  1  0
  9 11  1  0
  4 12  1  0
 12 13  1  0
 12 14  2  0
M  ISO  5   1   1   3   3  10   4  11   5  13   2
V    1 *
V    3 *
V   10 *
V   11 *
V   13 *
M  END
>  <symbol>  (809) 
aMeOrn

>  <m_Rgroups>  (809) 
[H],[OH],[H],[H],[H],None

>  <m_abbr>  (809) 
aMeOrn

>  <m_name>  (809) 
L-alpha-methylornithine

>  <m_type>  (809) 
aa

>  <m_subtype>  (809) 
modified

>  <m_chem_types>  (809) 
1:backbone_n,2:backbone_c,3:backbone_n_mod,4:amine_primary,5:amine_secondary

$$$$

     RDKit          2D

 14 13  0  0  0  0  0  0  0  0999 V2000
   -0.3919   -1.8660    0.0000 R   0  0  0  0  0  0  0  0  0  0  0  0
   -0.1375   -0.8988    0.0000 N   0  0  0  0  0  0  0  0  0  0  0  0
   -0.8479   -0.1950    0.0000 R   0  0  0  0  0  0  0  0  0  0  0  0
    0.8273   -0.6356    0.0000 C   0  0  0  0  0  0  0  0  0  0  0  0
    0.5729   -1.6028    0.0000 C   0  0  0  0  0  0  0  0  0  0  0  0
    0.5639    0.3290    0.0000 C   0  0  0  0  0  0  0  0  0  0  0  0
   -0.4031    0.5834    0.0000 C   0  0  0  0  0  0  0  0  0  0  0  0
   -0.6663    1.5482    0.0000 C   0  0  0  0  0  0  0  0  0  0  0  0
   -1.6335    1.8024    0.0000 N   0  0  0  0  0  0  0  0  0  0  0  0
   -1.8967    2.7672    0.0000 R   0  0  0  0  0  0  0  0  0  0  0  0
   -2.3373    1.0922    0.0000 R   0  0  0  0  0  0  0  0  0  0  0  0
    1.7943   -0.8900    0.0000 C   0  0  0  0  0  0  0  0  0  0  0  0
    2.0575   -1.8546    0.0000 R   0  0  0  0  0  0  0  0  0  0  0  0
    2.4981   -0.1796    0.0000 O   0  0  0  0  0  0  0  0  0  0  0  0
  1  2  1  0
  2  3  1  0
  2  4  1  0
  4  5  1  1
  4  6  1  0
  6  7  1  0
  7  8  1  0
  8  9  1  0
  9 10  1  0
  9 11  1  0
  4 12  1  0
 12 13  1  0
 12 14  2  0
M  ISO  5   1   1   3   3  10   4  11   5  13   2
V    1 *
V    3 *
V   10 *
V   11 *
V   13 *
M  END
>  <symbol>  (810) 
D_aMeOrn

>  <m_Rgroups>  (810) 
[H],[OH],[H],[H],[H],None

>  <m_abbr>  (810) 
D_aMeOrn

>  <m_name>  (810) 
D-alpha-methylornithine

>  <m_type>  (810) 
aa

>  <m_subtype>  (810) 
modified

>  <m_chem_types>  (810) 
1:backbone_n,2:backbone_c,3:backbone_n_mod,4:amine_primary,5:amine_secondary

$$$$

     RDKit          2D

 13 12  0  0  0  0  0  0  0  0999 V2000
   -0.7205   -1.7427    0.0000 R   0  0  0  0  0  0  0  0  0  0  0  0
   -0.4661   -0.7757    0.0000 N   0  0  0  0  0  0  0  0  0  0  0  0
   -1.1765   -0.0719    0.0000 R   0  0  0  0  0  0  0  0  0  0  0  0
    0.4987   -0.5125    0.0000 C   0  0  0  0  0  0  0  0  0  0  0  0
    0.2443   -1.4795    0.0000 C   0  0  0  0  0  0  0  0  0  0  0  0
    0.2353    0.4523    0.0000 C   0  0  0  0  0  0  0  0  0  0  0  0
   -0.7317    0.7065    0.0000 C   0  0  0  0  0  0  0  0  0  0  0  0
   -0.9949    1.6713    0.0000 N   0  0  0  0  0  0  0  0  0  0  0  0
   -1.9621    1.9257    0.0000 R   0  0  0  0  0  0  0  0  0  0  0  0
   -0.2911    2.3817    0.0000 R   0  0  0  0  0  0  0  0  0  0  0  0
    1.4657   -0.7669    0.0000 C   0  0  0  0  0  0  0  0  0  0  0  0
    1.7289   -1.7315    0.0000 R   0  0  0  0  0  0  0  0  0  0  0  0
    2.1695   -0.0565    0.0000 O   0  0  0  0  0  0  0  0  0  0  0  0
  1  2  1  0
  2  3  1  0
  2  4  1  0
  4  5  1  6
  4  6  1  0
  6  7  1  0
  7  8  1  0
  8  9  1  0
  8 10  1  0
  4 11  1  0
 11 12  1  0
 11 13  2  0
M  ISO  5   1   1   3   3   9   4  10   5  12   2
V    1 *
V    3 *
V    9 *
V   10 *
V   12 *
M  END
>  <symbol>  (811) 
aMeDab

>  <m_Rgroups>  (811) 
[H],[OH],[H],[H],[H],None

>  <m_abbr>  (811) 
aMeDab

>  <m_name>  (811) 
L-alpha-methyl-2,4-diaminobutyric acid

>  <m_type>  (811) 
aa

>  <m_subtype>  (811) 
modified

>  <m_chem_types>  (811) 
1:backbone_n,2:backbone_c,3:backbone_n_mod,4:amine_primary,5:amine_secondary

$$$$

     RDKit          2D

 13 12  0  0  0  0  0  0  0  0999 V2000
   -0.7205   -1.7427    0.0000 R   0  0  0  0  0  0  0  0  0  0  0  0
   -0.4661   -0.7757    0.0000 N   0  0  0  0  0  0  0  0  0  0  0  0
   -1.1765   -0.0719    0.0000 R   0  0  0  0  0  0  0  0  0  0  0  0
    0.4987   -0.5125    0.0000 C   0  0  0  0  0  0  0  0  0  0  0  0
    0.2443   -1.4795    0.0000 C   0  0  0  0  0  0  0  0  0  0  0  0
    0.2353    0.4523    0.0000 C   0  0  0  0  0  0  0  0  0  0  0  0
   -0.7317    0.7065    0.0000 C   0  0  0  0  0  0  0  0  0  0  0  0
   -0.9949    1.6713    0.0000 N   0  0  0  0  0  0  0  0  0  0  0  0
   -1.9621    1.9257    0.0000 R   0  0  0  0  0  0  0  0  0  0  0  0
   -0.2911    2.3817    0.0000 R   0  0  0  0  0  0  0  0  0  0  0  0
    1.4657   -0.7669    0.0000 C   0  0  0  0  0  0  0  0  0  0  0  0
    1.7289   -1.7315    0.0000 R   0  0  0  0  0  0  0  0  0  0  0  0
    2.1695   -0.0565    0.0000 O   0  0  0  0  0  0  0  0  0  0  0  0
  1  2  1  0
  2  3  1  0
  2  4  1  0
  4  5  1  1
  4  6  1  0
  6  7  1  0
  7  8  1  0
  8  9  1  0
  8 10  1  0
  4 11  1  0
 11 12  1  0
 11 13  2  0
M  ISO  5   1   1   3   3   9   4  10   5  12   2
V    1 *
V    3 *
V    9 *
V   10 *
V   12 *
M  END
>  <symbol>  (812) 
D_aMeDab

>  <m_Rgroups>  (812) 
[H],[OH],[H],[H],[H],None

>  <m_abbr>  (812) 
D_aMeDab

>  <m_name>  (812) 
D-alpha-methyl-2,4-diaminobutyric acid

>  <m_type>  (812) 
aa

>  <m_subtype>  (812) 
modified

>  <m_chem_types>  (812) 
1:backbone_n,2:backbone_c,3:backbone_n_mod,4:amine_primary,5:amine_secondary

$$$$

     RDKit          2D

 12 11  0  0  0  0  0  0  0  0999 V2000
   -1.8009   -0.1433    0.0000 R   0  0  0  0  0  0  0  0  0  0  0  0
   -1.0937    0.5637    0.0000 N   0  0  0  0  0  0  0  0  0  0  0  0
   -1.3523    1.5297    0.0000 R   0  0  0  0  0  0  0  0  0  0  0  0
   -0.1278    0.3047    0.0000 C   0  0  0  0  0  0  0  0  0  0  0  0
   -0.3864    1.2705    0.0000 C   0  0  0  0  0  0  0  0  0  0  0  0
   -0.3868   -0.6613    0.0000 C   0  0  0  0  0  0  0  0  0  0  0  0
    0.3202   -1.3685    0.0000 N   0  0  0  0  0  0  0  0  0  0  0  0
    0.0612   -2.3343    0.0000 R   0  0  0  0  0  0  0  0  0  0  0  0
    1.2862   -1.1099    0.0000 R   0  0  0  0  0  0  0  0  0  0  0  0
    0.8381    0.5633    0.0000 C   0  0  0  0  0  0  0  0  0  0  0  0
    1.5451   -0.1439    0.0000 R   0  0  0  0  0  0  0  0  0  0  0  0
    1.0971    1.5291    0.0000 O   0  0  0  0  0  0  0  0  0  0  0  0
  1  2  1  0
  2  3  1  0
  2  4  1  0
  4  5  1  1
  4  6  1  0
  6  7  1  0
  7  8  1  0
  7  9  1  0
  4 10  1  0
 10 11  1  0
 10 12  2  0
M  ISO  5   1   1   3   3   8   4   9   5  11   2
V    1 *
V    3 *
V    8 *
V    9 *
V   11 *
M  END
>  <symbol>  (813) 
aMeDap

>  <m_Rgroups>  (813) 
[H],[OH],[H],[H],[H],None

>  <m_abbr>  (813) 
aMeDap

>  <m_name>  (813) 
L-alpha-methyl-2,3-diaminopropionic acid

>  <m_type>  (813) 
aa

>  <m_subtype>  (813) 
modified

>  <m_chem_types>  (813) 
1:backbone_n,2:backbone_c,3:backbone_n_mod,4:amine_primary,5:amine_secondary

$$$$

     RDKit          2D

 12 11  0  0  0  0  0  0  0  0999 V2000
   -1.8009   -0.1433    0.0000 R   0  0  0  0  0  0  0  0  0  0  0  0
   -1.0937    0.5637    0.0000 N   0  0  0  0  0  0  0  0  0  0  0  0
   -1.3523    1.5297    0.0000 R   0  0  0  0  0  0  0  0  0  0  0  0
   -0.1278    0.3047    0.0000 C   0  0  0  0  0  0  0  0  0  0  0  0
   -0.3864    1.2705    0.0000 C   0  0  0  0  0  0  0  0  0  0  0  0
   -0.3868   -0.6613    0.0000 C   0  0  0  0  0  0  0  0  0  0  0  0
    0.3202   -1.3685    0.0000 N   0  0  0  0  0  0  0  0  0  0  0  0
    0.0612   -2.3343    0.0000 R   0  0  0  0  0  0  0  0  0  0  0  0
    1.2862   -1.1099    0.0000 R   0  0  0  0  0  0  0  0  0  0  0  0
    0.8381    0.5633    0.0000 C   0  0  0  0  0  0  0  0  0  0  0  0
    1.5451   -0.1439    0.0000 R   0  0  0  0  0  0  0  0  0  0  0  0
    1.0971    1.5291    0.0000 O   0  0  0  0  0  0  0  0  0  0  0  0
  1  2  1  0
  2  3  1  0
  2  4  1  0
  4  5  1  6
  4  6  1  0
  6  7  1  0
  7  8  1  0
  7  9  1  0
  4 10  1  0
 10 11  1  0
 10 12  2  0
M  ISO  5   1   1   3   3   8   4   9   5  11   2
V    1 *
V    3 *
V    8 *
V    9 *
V   11 *
M  END
>  <symbol>  (814) 
D_aMeDap

>  <m_Rgroups>  (814) 
[H],[OH],[H],[H],[H],None

>  <m_abbr>  (814) 
D_aMeDap

>  <m_name>  (814) 
D-alpha-methyl-2,3-diaminopropionic acid

>  <m_type>  (814) 
aa

>  <m_subtype>  (814) 
modified

>  <m_chem_types>  (814) 
1:backbone_n,2:backbone_c,3:backbone_n_mod,4:amine_primary,5:amine_secondary

$$$$

     RDKit          2D

 16 16  0  0  0  0  0  0  0  0999 V2000
   -1.0372   -1.2992    0.0000 R   0  0  0  0  0  0  0  0  0  0  0  0
   -0.0718   -1.5596    0.0000 N   0  0  0  0  0  0  0  0  0  0  0  0
    0.1852   -2.5260    0.0000 R   0  0  0  0  0  0  0  0  0  0  0  0
    0.6364   -0.8538    0.0000 C   0  0  0  0  0  0  0  0  0  0  0  0
   -0.3290   -0.5932    0.0000 C   0  0  0  0  0  0  0  0  0  0  0  0
    0.8970    0.1116    0.0000 C   0  0  0  0  0  0  0  0  0  0  0  0
    0.1912    0.8200    0.0000 C   0  0  0  0  0  0  0  0  0  0  0  0
   -0.7752    0.5628    0.0000 C   0  0  0  0  0  0  0  0  0  0  0  0
   -1.4810    1.2712    0.0000 C   0  0  0  0  0  0  0  0  0  0  0  0
   -1.2204    2.2366    0.0000 C   0  0  0  0  0  0  0  0  0  0  0  0
   -1.9262    2.9450    0.0000 Br  0  0  0  0  0  0  0  0  0  0  0  0
   -0.2540    2.4938    0.0000 C   0  0  0  0  0  0  0  0  0  0  0  0
    0.4518    1.7854    0.0000 C   0  0  0  0  0  0  0  0  0  0  0  0
    1.3424   -1.5622    0.0000 C   0  0  0  0  0  0  0  0  0  0  0  0
    1.0818   -2.5276    0.0000 R   0  0  0  0  0  0  0  0  0  0  0  0
    2.3088   -1.3052    0.0000 O   0  0  0  0  0  0  0  0  0  0  0  0
  1  2  1  0
  2  3  1  0
  2  4  1  0
  4  5  1  6
  4  6  1  0
  6  7  1  0
  7  8  1  0
  8  9  2  0
  9 10  1  0
 10 11  1  0
 10 12  2  0
 12 13  1  0
  4 14  1  0
 14 15  1  0
 14 16  2  0
 13  7  2  0
M  ISO  3   1   1   3   3  15   2
V    1 *
V    3 *
V   15 *
M  END
>  <symbol>  (815) 
aMePhe_4Br

>  <m_Rgroups>  (815) 
[H],[OH],[H],None,None,None

>  <m_abbr>  (815) 
aMePhe_4Br

>  <m_name>  (815) 
L-alpha-methyl-4-bromophenylalanine

>  <m_type>  (815) 
aa

>  <m_subtype>  (815) 
modified

>  <m_chem_types>  (815) 
1:backbone_n,2:backbone_c,3:backbone_n_mod

$$$$

     RDKit          2D

 16 16  0  0  0  0  0  0  0  0999 V2000
   -1.0372   -1.2992    0.0000 R   0  0  0  0  0  0  0  0  0  0  0  0
   -0.0718   -1.5596    0.0000 N   0  0  0  0  0  0  0  0  0  0  0  0
    0.1852   -2.5260    0.0000 R   0  0  0  0  0  0  0  0  0  0  0  0
    0.6364   -0.8538    0.0000 C   0  0  0  0  0  0  0  0  0  0  0  0
   -0.3290   -0.5932    0.0000 C   0  0  0  0  0  0  0  0  0  0  0  0
    0.8970    0.1116    0.0000 C   0  0  0  0  0  0  0  0  0  0  0  0
    0.1912    0.8200    0.0000 C   0  0  0  0  0  0  0  0  0  0  0  0
   -0.7752    0.5628    0.0000 C   0  0  0  0  0  0  0  0  0  0  0  0
   -1.4810    1.2712    0.0000 C   0  0  0  0  0  0  0  0  0  0  0  0
   -1.2204    2.2366    0.0000 C   0  0  0  0  0  0  0  0  0  0  0  0
   -1.9262    2.9450    0.0000 Br  0  0  0  0  0  0  0  0  0  0  0  0
   -0.2540    2.4938    0.0000 C   0  0  0  0  0  0  0  0  0  0  0  0
    0.4518    1.7854    0.0000 C   0  0  0  0  0  0  0  0  0  0  0  0
    1.3424   -1.5622    0.0000 C   0  0  0  0  0  0  0  0  0  0  0  0
    1.0818   -2.5276    0.0000 R   0  0  0  0  0  0  0  0  0  0  0  0
    2.3088   -1.3052    0.0000 O   0  0  0  0  0  0  0  0  0  0  0  0
  1  2  1  0
  2  3  1  0
  2  4  1  0
  4  5  1  1
  4  6  1  0
  6  7  1  0
  7  8  1  0
  8  9  2  0
  9 10  1  0
 10 11  1  0
 10 12  2  0
 12 13  1  0
  4 14  1  0
 14 15  1  0
 14 16  2  0
 13  7  2  0
M  ISO  3   1   1   3   3  15   2
V    1 *
V    3 *
V   15 *
M  END
>  <symbol>  (816) 
D_aMePhe_4Br

>  <m_Rgroups>  (816) 
[H],[OH],[H],None,None,None

>  <m_abbr>  (816) 
D_aMePhe_4Br

>  <m_name>  (816) 
D-alpha-methyl-4-bromophenylalanine

>  <m_type>  (816) 
aa

>  <m_subtype>  (816) 
modified

>  <m_chem_types>  (816) 
1:backbone_n,2:backbone_c,3:backbone_n_mod

$$$$

     RDKit          2D

 19 19  0  0  0  0  0  0  0  0999 V2000
   -0.6587   -1.7915    0.0000 R   0  0  0  0  0  0  0  0  0  0  0  0
    0.3067   -2.0521    0.0000 N   0  0  0  0  0  0  0  0  0  0  0  0
    0.5639   -3.0185    0.0000 R   0  0  0  0  0  0  0  0  0  0  0  0
    1.0151   -1.3461    0.0000 C   0  0  0  0  0  0  0  0  0  0  0  0
    0.0497   -1.0857    0.0000 C   0  0  0  0  0  0  0  0  0  0  0  0
    1.2757   -0.3807    0.0000 C   0  0  0  0  0  0  0  0  0  0  0  0
    0.5699    0.3275    0.0000 C   0  0  0  0  0  0  0  0  0  0  0  0
   -0.3965    0.0705    0.0000 C   0  0  0  0  0  0  0  0  0  0  0  0
   -1.1023    0.7789    0.0000 C   0  0  0  0  0  0  0  0  0  0  0  0
   -0.8419    1.7443    0.0000 C   0  0  0  0  0  0  0  0  0  0  0  0
   -1.5477    2.4527    0.0000 C   0  0  0  0  0  0  0  0  0  0  0  0
   -2.2561    1.7469    0.0000 F   0  0  0  0  0  0  0  0  0  0  0  0
   -2.5131    2.7133    0.0000 F   0  0  0  0  0  0  0  0  0  0  0  0
   -1.2871    3.4181    0.0000 F   0  0  0  0  0  0  0  0  0  0  0  0
    0.1245    2.0013    0.0000 C   0  0  0  0  0  0  0  0  0  0  0  0
    0.8303    1.2931    0.0000 C   0  0  0  0  0  0  0  0  0  0  0  0
    1.7209   -2.0545    0.0000 C   0  0  0  0  0  0  0  0  0  0  0  0
    1.4603   -3.0199    0.0000 R   0  0  0  0  0  0  0  0  0  0  0  0
    2.6873   -1.7975    0.0000 O   0  0  0  0  0  0  0  0  0  0  0  0
  1  2  1  0
  2  3  1  0
  2  4  1  0
  4  5  1  6
  4  6  1  0
  6  7  1  0
  7  8  1  0
  8  9  2  0
  9 10  1  0
 10 11  1  0
 11 12  1  0
 11 13  1  0
 11 14  1  0
 10 15  2  0
 15 16  1  0
  4 17  1  0
 17 18  1  0
 17 19  2  0
 16  7  2  0
M  ISO  3   1   1   3   3  18   2
V    1 *
V    3 *
V   18 *
M  END
>  <symbol>  (817) 
aMePhe_4CF3

>  <m_Rgroups>  (817) 
[H],[OH],[H],None,None,None

>  <m_abbr>  (817) 
aMePhe_4CF3

>  <m_name>  (817) 
L-alpha-methyl-4-(trifluoromethyl)phenylalanine

>  <m_type>  (817) 
aa

>  <m_subtype>  (817) 
modified

>  <m_chem_types>  (817) 
1:backbone_n,2:backbone_c,3:backbone_n_mod

$$$$

     RDKit          2D

 19 19  0  0  0  0  0  0  0  0999 V2000
   -0.6587   -1.7915    0.0000 R   0  0  0  0  0  0  0  0  0  0  0  0
    0.3067   -2.0521    0.0000 N   0  0  0  0  0  0  0  0  0  0  0  0
    0.5639   -3.0185    0.0000 R   0  0  0  0  0  0  0  0  0  0  0  0
    1.0151   -1.3461    0.0000 C   0  0  0  0  0  0  0  0  0  0  0  0
    0.0497   -1.0857    0.0000 C   0  0  0  0  0  0  0  0  0  0  0  0
    1.2757   -0.3807    0.0000 C   0  0  0  0  0  0  0  0  0  0  0  0
    0.5699    0.3275    0.0000 C   0  0  0  0  0  0  0  0  0  0  0  0
   -0.3965    0.0705    0.0000 C   0  0  0  0  0  0  0  0  0  0  0  0
   -1.1023    0.7789    0.0000 C   0  0  0  0  0  0  0  0  0  0  0  0
   -0.8419    1.7443    0.0000 C   0  0  0  0  0  0  0  0  0  0  0  0
   -1.5477    2.4527    0.0000 C   0  0  0  0  0  0  0  0  0  0  0  0
   -2.2561    1.7469    0.0000 F   0  0  0  0  0  0  0  0  0  0  0  0
   -2.5131    2.7133    0.0000 F   0  0  0  0  0  0  0  0  0  0  0  0
   -1.2871    3.4181    0.0000 F   0  0  0  0  0  0  0  0  0  0  0  0
    0.1245    2.0013    0.0000 C   0  0  0  0  0  0  0  0  0  0  0  0
    0.8303    1.2931    0.0000 C   0  0  0  0  0  0  0  0  0  0  0  0
    1.7209   -2.0545    0.0000 C   0  0  0  0  0  0  0  0  0  0  0  0
    1.4603   -3.0199    0.0000 R   0  0  0  0  0  0  0  0  0  0  0  0
    2.6873   -1.7975    0.0000 O   0  0  0  0  0  0  0  0  0  0  0  0
  1  2  1  0
  2  3  1  0
  2  4  1  0
  4  5  1  1
  4  6  1  0
  6  7  1  0
  7  8  1  0
  8  9  2  0
  9 10  1  0
 10 11  1  0
 11 12  1  0
 11 13  1  0
 11 14  1  0
 10 15  2  0
 15 16  1  0
  4 17  1  0
 17 18  1  0
 17 19  2  0
 16  7  2  0
M  ISO  3   1   1   3   3  18   2
V    1 *
V    3 *
V   18 *
M  END
>  <symbol>  (818) 
D_aMePhe_4CF3

>  <m_Rgroups>  (818) 
[H],[OH],[H],None,None,None

>  <m_abbr>  (818) 
D_aMePhe_4CF3

>  <m_name>  (818) 
D-alpha-methyl-4-(trifluoromethyl)phenylalanine

>  <m_type>  (818) 
aa

>  <m_subtype>  (818) 
modified

>  <m_chem_types>  (818) 
1:backbone_n,2:backbone_c,3:backbone_n_mod

$$$$

     RDKit          2D

 17 17  0  0  0  0  0  0  0  0999 V2000
   -0.8824   -1.5140    0.0000 R   0  0  0  0  0  0  0  0  0  0  0  0
    0.0830   -1.7746    0.0000 N   0  0  0  0  0  0  0  0  0  0  0  0
    0.3400   -2.7408    0.0000 R   0  0  0  0  0  0  0  0  0  0  0  0
    0.7914   -1.0686    0.0000 C   0  0  0  0  0  0  0  0  0  0  0  0
   -0.1740   -0.8082    0.0000 C   0  0  0  0  0  0  0  0  0  0  0  0
    1.0520   -0.1032    0.0000 C   0  0  0  0  0  0  0  0  0  0  0  0
    0.3460    0.6052    0.0000 C   0  0  0  0  0  0  0  0  0  0  0  0
   -0.6204    0.3480    0.0000 C   0  0  0  0  0  0  0  0  0  0  0  0
   -1.3262    1.0564    0.0000 C   0  0  0  0  0  0  0  0  0  0  0  0
   -1.0656    2.0218    0.0000 C   0  0  0  0  0  0  0  0  0  0  0  0
   -1.7714    2.7302    0.0000 C   0  0  0  0  0  0  0  0  0  0  0  0
   -2.4772    3.4386    0.0000 N   0  0  0  0  0  0  0  0  0  0  0  0
   -0.0992    2.2788    0.0000 C   0  0  0  0  0  0  0  0  0  0  0  0
    0.6066    1.5706    0.0000 C   0  0  0  0  0  0  0  0  0  0  0  0
    1.4972   -1.7770    0.0000 C   0  0  0  0  0  0  0  0  0  0  0  0
    1.2366   -2.7424    0.0000 R   0  0  0  0  0  0  0  0  0  0  0  0
    2.4636   -1.5200    0.0000 O   0  0  0  0  0  0  0  0  0  0  0  0
  1  2  1  0
  2  3  1  0
  2  4  1  0
  4  5  1  6
  4  6  1  0
  6  7  1  0
  7  8  1  0
  8  9  2  0
  9 10  1  0
 10 11  1  0
 11 12  3  0
 10 13  2  0
 13 14  1  0
  4 15  1  0
 15 16  1  0
 15 17  2  0
 14  7  2  0
M  ISO  3   1   1   3   3  16   2
V    1 *
V    3 *
V   16 *
M  END
>  <symbol>  (819) 
aMePhe_4CN

>  <m_Rgroups>  (819) 
[H],[OH],[H],None,None,None

>  <m_abbr>  (819) 
aMePhe_4CN

>  <m_name>  (819) 
L-alpha-methyl-4-cyanophenylalanine

>  <m_type>  (819) 
aa

>  <m_subtype>  (819) 
modified

>  <m_chem_types>  (819) 
1:backbone_n,2:backbone_c,3:backbone_n_mod

$$$$

     RDKit          2D

 17 17  0  0  0  0  0  0  0  0999 V2000
   -0.8824   -1.5140    0.0000 R   0  0  0  0  0  0  0  0  0  0  0  0
    0.0830   -1.7746    0.0000 N   0  0  0  0  0  0  0  0  0  0  0  0
    0.3400   -2.7408    0.0000 R   0  0  0  0  0  0  0  0  0  0  0  0
    0.7914   -1.0686    0.0000 C   0  0  0  0  0  0  0  0  0  0  0  0
   -0.1740   -0.8082    0.0000 C   0  0  0  0  0  0  0  0  0  0  0  0
    1.0520   -0.1032    0.0000 C   0  0  0  0  0  0  0  0  0  0  0  0
    0.3460    0.6052    0.0000 C   0  0  0  0  0  0  0  0  0  0  0  0
   -0.6204    0.3480    0.0000 C   0  0  0  0  0  0  0  0  0  0  0  0
   -1.3262    1.0564    0.0000 C   0  0  0  0  0  0  0  0  0  0  0  0
   -1.0656    2.0218    0.0000 C   0  0  0  0  0  0  0  0  0  0  0  0
   -1.7714    2.7302    0.0000 C   0  0  0  0  0  0  0  0  0  0  0  0
   -2.4772    3.4386    0.0000 N   0  0  0  0  0  0  0  0  0  0  0  0
   -0.0992    2.2788    0.0000 C   0  0  0  0  0  0  0  0  0  0  0  0
    0.6066    1.5706    0.0000 C   0  0  0  0  0  0  0  0  0  0  0  0
    1.4972   -1.7770    0.0000 C   0  0  0  0  0  0  0  0  0  0  0  0
    1.2366   -2.7424    0.0000 R   0  0  0  0  0  0  0  0  0  0  0  0
    2.4636   -1.5200    0.0000 O   0  0  0  0  0  0  0  0  0  0  0  0
  1  2  1  0
  2  3  1  0
  2  4  1  0
  4  5  1  1
  4  6  1  0
  6  7  1  0
  7  8  1  0
  8  9  2  0
  9 10  1  0
 10 11  1  0
 11 12  3  0
 10 13  2  0
 13 14  1  0
  4 15  1  0
 15 16  1  0
 15 17  2  0
 14  7  2  0
M  ISO  3   1   1   3   3  16   2
V    1 *
V    3 *
V   16 *
M  END
>  <symbol>  (820) 
D_aMePhe_4CN

>  <m_Rgroups>  (820) 
[H],[OH],[H],None,None,None

>  <m_abbr>  (820) 
D_aMePhe_4CN

>  <m_name>  (820) 
D-alpha-methyl-4-cyanophenylalanine

>  <m_type>  (820) 
aa

>  <m_subtype>  (820) 
modified

>  <m_chem_types>  (820) 
1:backbone_n,2:backbone_c,3:backbone_n_mod

$$$$

     RDKit          2D

 16 16  0  0  0  0  0  0  0  0999 V2000
   -1.0372   -1.2992    0.0000 R   0  0  0  0  0  0  0  0  0  0  0  0
   -0.0718   -1.5596    0.0000 N   0  0  0  0  0  0  0  0  0  0  0  0
    0.1852   -2.5260    0.0000 R   0  0  0  0  0  0  0  0  0  0  0  0
    0.6364   -0.8538    0.0000 C   0  0  0  0  0  0  0  0  0  0  0  0
   -0.3290   -0.5932    0.0000 C   0  0  0  0  0  0  0  0  0  0  0  0
    0.8970    0.1116    0.0000 C   0  0  0  0  0  0  0  0  0  0  0  0
    0.1912    0.8200    0.0000 C   0  0  0  0  0  0  0  0  0  0  0  0
   -0.7752    0.5628    0.0000 C   0  0  0  0  0  0  0  0  0  0  0  0
   -1.4810    1.2712    0.0000 C   0  0  0  0  0  0  0  0  0  0  0  0
   -1.2204    2.2366    0.0000 C   0  0  0  0  0  0  0  0  0  0  0  0
   -1.9262    2.9450    0.0000 C   0  0  0  0  0  0  0  0  0  0  0  0
   -0.2540    2.4938    0.0000 C   0  0  0  0  0  0  0  0  0  0  0  0
    0.4518    1.7854    0.0000 C   0  0  0  0  0  0  0  0  0  0  0  0
    1.3424   -1.5622    0.0000 C   0  0  0  0  0  0  0  0  0  0  0  0
    1.0818   -2.5276    0.0000 R   0  0  0  0  0  0  0  0  0  0  0  0
    2.3088   -1.3052    0.0000 O   0  0  0  0  0  0  0  0  0  0  0  0
  1  2  1  0
  2  3  1  0
  2  4  1  0
  4  5  1  6
  4  6  1  0
  6  7  1  0
  7  8  1  0
  8  9  2  0
  9 10  1  0
 10 11  1  0
 10 12  2  0
 12 13  1  0
  4 14  1  0
 14 15  1  0
 14 16  2  0
 13  7  2  0
M  ISO  3   1   1   3   3  15   2
V    1 *
V    3 *
V   15 *
M  END
>  <symbol>  (821) 
aMePhe_4Me

>  <m_Rgroups>  (821) 
[H],[OH],[H],None,None,None

>  <m_abbr>  (821) 
aMePhe_4Me

>  <m_name>  (821) 
L-alpha-methyl-4-methylphenylalanine

>  <m_type>  (821) 
aa

>  <m_subtype>  (821) 
modified

>  <m_chem_types>  (821) 
1:backbone_n,2:backbone_c,3:backbone_n_mod

$$$$

     RDKit          2D

 16 16  0  0  0  0  0  0  0  0999 V2000
   -1.0372   -1.2992    0.0000 R   0  0  0  0  0  0  0  0  0  0  0  0
   -0.0718   -1.5596    0.0000 N   0  0  0  0  0  0  0  0  0  0  0  0
    0.1852   -2.5260    0.0000 R   0  0  0  0  0  0  0  0  0  0  0  0
    0.6364   -0.8538    0.0000 C   0  0  0  0  0  0  0  0  0  0  0  0
   -0.3290   -0.5932    0.0000 C   0  0  0  0  0  0  0  0  0  0  0  0
    0.8970    0.1116    0.0000 C   0  0  0  0  0  0  0  0  0  0  0  0
    0.1912    0.8200    0.0000 C   0  0  0  0  0  0  0  0  0  0  0  0
   -0.7752    0.5628    0.0000 C   0  0  0  0  0  0  0  0  0  0  0  0
   -1.4810    1.2712    0.0000 C   0  0  0  0  0  0  0  0  0  0  0  0
   -1.2204    2.2366    0.0000 C   0  0  0  0  0  0  0  0  0  0  0  0
   -1.9262    2.9450    0.0000 C   0  0  0  0  0  0  0  0  0  0  0  0
   -0.2540    2.4938    0.0000 C   0  0  0  0  0  0  0  0  0  0  0  0
    0.4518    1.7854    0.0000 C   0  0  0  0  0  0  0  0  0  0  0  0
    1.3424   -1.5622    0.0000 C   0  0  0  0  0  0  0  0  0  0  0  0
    1.0818   -2.5276    0.0000 R   0  0  0  0  0  0  0  0  0  0  0  0
    2.3088   -1.3052    0.0000 O   0  0  0  0  0  0  0  0  0  0  0  0
  1  2  1  0
  2  3  1  0
  2  4  1  0
  4  5  1  1
  4  6  1  0
  6  7  1  0
  7  8  1  0
  8  9  2  0
  9 10  1  0
 10 11  1  0
 10 12  2  0
 12 13  1  0
  4 14  1  0
 14 15  1  0
 14 16  2  0
 13  7  2  0
M  ISO  3   1   1   3   3  15   2
V    1 *
V    3 *
V   15 *
M  END
>  <symbol>  (822) 
D_aMePhe_4Me

>  <m_Rgroups>  (822) 
[H],[OH],[H],None,None,None

>  <m_abbr>  (822) 
D_aMePhe_4Me

>  <m_name>  (822) 
D-alpha-methyl-4-methylphenylalanine

>  <m_type>  (822) 
aa

>  <m_subtype>  (822) 
modified

>  <m_chem_types>  (822) 
1:backbone_n,2:backbone_c,3:backbone_n_mod

$$$$

     RDKit          2D

 19 19  0  0  0  0  0  0  0  0999 V2000
   -0.6587   -1.7915    0.0000 R   0  0  0  0  0  0  0  0  0  0  0  0
    0.3067   -2.0521    0.0000 N   0  0  0  0  0  0  0  0  0  0  0  0
    0.5639   -3.0185    0.0000 R   0  0  0  0  0  0  0  0  0  0  0  0
    1.0151   -1.3461    0.0000 C   0  0  0  0  0  0  0  0  0  0  0  0
    0.0497   -1.0857    0.0000 C   0  0  0  0  0  0  0  0  0  0  0  0
    1.2757   -0.3807    0.0000 C   0  0  0  0  0  0  0  0  0  0  0  0
    0.5699    0.3275    0.0000 C   0  0  0  0  0  0  0  0  0  0  0  0
   -0.3965    0.0705    0.0000 C   0  0  0  0  0  0  0  0  0  0  0  0
   -1.1023    0.7789    0.0000 C   0  0  0  0  0  0  0  0  0  0  0  0
   -0.8419    1.7443    0.0000 C   0  0  0  0  0  0  0  0  0  0  0  0
   -1.5477    2.4527    0.0000 C   0  0  0  0  0  0  0  0  0  0  0  0
   -2.2561    1.7469    0.0000 C   0  0  0  0  0  0  0  0  0  0  0  0
   -2.5131    2.7133    0.0000 C   0  0  0  0  0  0  0  0  0  0  0  0
   -1.2871    3.4181    0.0000 C   0  0  0  0  0  0  0  0  0  0  0  0
    0.1245    2.0013    0.0000 C   0  0  0  0  0  0  0  0  0  0  0  0
    0.8303    1.2931    0.0000 C   0  0  0  0  0  0  0  0  0  0  0  0
    1.7209   -2.0545    0.0000 C   0  0  0  0  0  0  0  0  0  0  0  0
    1.4603   -3.0199    0.0000 R   0  0  0  0  0  0  0  0  0  0  0  0
    2.6873   -1.7975    0.0000 O   0  0  0  0  0  0  0  0  0  0  0  0
  1  2  1  0
  2  3  1  0
  2  4  1  0
  4  5  1  6
  4  6  1  0
  6  7  1  0
  7  8  1  0
  8  9  2  0
  9 10  1  0
 10 11  1  0
 11 12  1  0
 11 13  1  0
 11 14  1  0
 10 15  2  0
 15 16  1  0
  4 17  1  0
 17 18  1  0
 17 19  2  0
 16  7  2  0
M  ISO  3   1   1   3   3  18   2
V    1 *
V    3 *
V   18 *
M  END
>  <symbol>  (823) 
aMePhe_4tBu

>  <m_Rgroups>  (823) 
[H],[OH],[H],None,None,None

>  <m_abbr>  (823) 
aMePhe_4tBu

>  <m_name>  (823) 
L-alpha-methyl-4-tert-butylphenylalanine

>  <m_type>  (823) 
aa

>  <m_subtype>  (823) 
modified

>  <m_chem_types>  (823) 
1:backbone_n,2:backbone_c,3:backbone_n_mod

$$$$

     RDKit          2D

 19 19  0  0  0  0  0  0  0  0999 V2000
   -0.6587   -1.7915    0.0000 R   0  0  0  0  0  0  0  0  0  0  0  0
    0.3067   -2.0521    0.0000 N   0  0  0  0  0  0  0  0  0  0  0  0
    0.5639   -3.0185    0.0000 R   0  0  0  0  0  0  0  0  0  0  0  0
    1.0151   -1.3461    0.0000 C   0  0  0  0  0  0  0  0  0  0  0  0
    0.0497   -1.0857    0.0000 C   0  0  0  0  0  0  0  0  0  0  0  0
    1.2757   -0.3807    0.0000 C   0  0  0  0  0  0  0  0  0  0  0  0
    0.5699    0.3275    0.0000 C   0  0  0  0  0  0  0  0  0  0  0  0
   -0.3965    0.0705    0.0000 C   0  0  0  0  0  0  0  0  0  0  0  0
   -1.1023    0.7789    0.0000 C   0  0  0  0  0  0  0  0  0  0  0  0
   -0.8419    1.7443    0.0000 C   0  0  0  0  0  0  0  0  0  0  0  0
   -1.5477    2.4527    0.0000 C   0  0  0  0  0  0  0  0  0  0  0  0
   -2.2561    1.7469    0.0000 C   0  0  0  0  0  0  0  0  0  0  0  0
   -2.5131    2.7133    0.0000 C   0  0  0  0  0  0  0  0  0  0  0  0
   -1.2871    3.4181    0.0000 C   0  0  0  0  0  0  0  0  0  0  0  0
    0.1245    2.0013    0.0000 C   0  0  0  0  0  0  0  0  0  0  0  0
    0.8303    1.2931    0.0000 C   0  0  0  0  0  0  0  0  0  0  0  0
    1.7209   -2.0545    0.0000 C   0  0  0  0  0  0  0  0  0  0  0  0
    1.4603   -3.0199    0.0000 R   0  0  0  0  0  0  0  0  0  0  0  0
    2.6873   -1.7975    0.0000 O   0  0  0  0  0  0  0  0  0  0  0  0
  1  2  1  0
  2  3  1  0
  2  4  1  0
  4  5  1  1
  4  6  1  0
  6  7  1  0
  7  8  1  0
  8  9  2  0
  9 10  1  0
 10 11  1  0
 11 12  1  0
 11 13  1  0
 11 14  1  0
 10 15  2  0
 15 16  1  0
  4 17  1  0
 17 18  1  0
 17 19  2  0
 16  7  2  0
M  ISO  3   1   1   3   3  18   2
V    1 *
V    3 *
V   18 *
M  END
>  <symbol>  (824) 
D_aMePhe_4tBu

>  <m_Rgroups>  (824) 
[H],[OH],[H],None,None,None

>  <m_abbr>  (824) 
D_aMePhe_4tBu

>  <m_name>  (824) 
D-alpha-methyl-4-tert-butylphenylalanine

>  <m_type>  (824) 
aa

>  <m_subtype>  (824) 
modified

>  <m_chem_types>  (824) 
1:backbone_n,2:backbone_c,3:backbone_n_mod

$$$$

     RDKit          2D

 16 16  0  0  0  0  0  0  0  0999 V2000
   -1.1522   -1.3362    0.0000 R   0  0  0  0  0  0  0  0  0  0  0  0
   -0.1856   -1.5926    0.0000 N   0  0  0  0  0  0  0  0  0  0  0  0
    0.0756   -2.5578    0.0000 R   0  0  0  0  0  0  0  0  0  0  0  0
    0.5196   -0.8836    0.0000 C   0  0  0  0  0  0  0  0  0  0  0  0
   -0.4470   -0.6274    0.0000 C   0  0  0  0  0  0  0  0  0  0  0  0
    0.7760    0.0830    0.0000 C   0  0  0  0  0  0  0  0  0  0  0  0
    0.0670    0.7882    0.0000 C   0  0  0  0  0  0  0  0  0  0  0  0
   -0.8982    0.5268    0.0000 C   0  0  0  0  0  0  0  0  0  0  0  0
   -1.6072    1.2322    0.0000 C   0  0  0  0  0  0  0  0  0  0  0  0
   -1.3508    2.1988    0.0000 C   0  0  0  0  0  0  0  0  0  0  0  0
   -0.3856    2.4600    0.0000 C   0  0  0  0  0  0  0  0  0  0  0  0
   -0.1292    3.4266    0.0000 F   0  0  0  0  0  0  0  0  0  0  0  0
    0.3234    1.7548    0.0000 C   0  0  0  0  0  0  0  0  0  0  0  0
    1.2286   -1.5890    0.0000 C   0  0  0  0  0  0  0  0  0  0  0  0
    0.9722   -2.5556    0.0000 R   0  0  0  0  0  0  0  0  0  0  0  0
    2.1938   -1.3276    0.0000 O   0  0  0  0  0  0  0  0  0  0  0  0
  1  2  1  0
  2  3  1  0
  2  4  1  0
  4  5  1  6
  4  6  1  0
  6  7  1  0
  7  8  2  0
  8  9  1  0
  9 10  2  0
 10 11  1  0
 11 12  1  0
 11 13  2  0
  4 14  1  0
 14 15  1  0
 14 16  2  0
 13  7  1  0
M  ISO  3   1   1   3   3  15   2
V    1 *
V    3 *
V   15 *
M  END
>  <symbol>  (825) 
aMePhe_3F

>  <m_Rgroups>  (825) 
[H],[OH],[H],None,None,None

>  <m_abbr>  (825) 
aMePhe_3F

>  <m_name>  (825) 
L-alpha-methyl-3-fluorophenylalanine

>  <m_type>  (825) 
aa

>  <m_subtype>  (825) 
modified

>  <m_chem_types>  (825) 
1:backbone_n,2:backbone_c,3:backbone_n_mod

$$$$

     RDKit          2D

 16 16  0  0  0  0  0  0  0  0999 V2000
   -1.1522   -1.3362    0.0000 R   0  0  0  0  0  0  0  0  0  0  0  0
   -0.1856   -1.5926    0.0000 N   0  0  0  0  0  0  0  0  0  0  0  0
    0.0756   -2.5578    0.0000 R   0  0  0  0  0  0  0  0  0  0  0  0
    0.5196   -0.8836    0.0000 C   0  0  0  0  0  0  0  0  0  0  0  0
   -0.4470   -0.6274    0.0000 C   0  0  0  0  0  0  0  0  0  0  0  0
    0.7760    0.0830    0.0000 C   0  0  0  0  0  0  0  0  0  0  0  0
    0.0670    0.7882    0.0000 C   0  0  0  0  0  0  0  0  0  0  0  0
   -0.8982    0.5268    0.0000 C   0  0  0  0  0  0  0  0  0  0  0  0
   -1.6072    1.2322    0.0000 C   0  0  0  0  0  0  0  0  0  0  0  0
   -1.3508    2.1988    0.0000 C   0  0  0  0  0  0  0  0  0  0  0  0
   -0.3856    2.4600    0.0000 C   0  0  0  0  0  0  0  0  0  0  0  0
   -0.1292    3.4266    0.0000 F   0  0  0  0  0  0  0  0  0  0  0  0
    0.3234    1.7548    0.0000 C   0  0  0  0  0  0  0  0  0  0  0  0
    1.2286   -1.5890    0.0000 C   0  0  0  0  0  0  0  0  0  0  0  0
    0.9722   -2.5556    0.0000 R   0  0  0  0  0  0  0  0  0  0  0  0
    2.1938   -1.3276    0.0000 O   0  0  0  0  0  0  0  0  0  0  0  0
  1  2  1  0
  2  3  1  0
  2  4  1  0
  4  5  1  1
  4  6  1  0
  6  7  1  0
  7  8  2  0
  8  9  1  0
  9 10  2  0
 10 11  1  0
 11 12  1  0
 11 13  2  0
  4 14  1  0
 14 15  1  0
 14 16  2  0
 13  7  1  0
M  ISO  3   1   1   3   3  15   2
V    1 *
V    3 *
V   15 *
M  END
>  <symbol>  (826) 
D_aMePhe_3F

>  <m_Rgroups>  (826) 
[H],[OH],[H],None,None,None

>  <m_abbr>  (826) 
D_aMePhe_3F

>  <m_name>  (826) 
D-alpha-methyl-3-fluorophenylalanine

>  <m_type>  (826) 
aa

>  <m_subtype>  (826) 
modified

>  <m_chem_types>  (826) 
1:backbone_n,2:backbone_c,3:backbone_n_mod

$$$$

     RDKit          2D

 19 20  0  0  0  0  0  0  0  0999 V2000
   -1.3582   -1.7839    0.0000 R   0  0  0  0  0  0  0  0  0  0  0  0
   -0.3936   -2.0471    0.0000 N   0  0  0  0  0  0  0  0  0  0  0  0
   -0.1392   -3.0141    0.0000 R   0  0  0  0  0  0  0  0  0  0  0  0
    0.3168   -1.3433    0.0000 C   0  0  0  0  0  0  0  0  0  0  0  0
   -0.6478   -1.0799    0.0000 C   0  0  0  0  0  0  0  0  0  0  0  0
    0.5800   -0.3785    0.0000 C   0  0  0  0  0  0  0  0  0  0  0  0
   -0.1238    0.3319    0.0000 C   0  0  0  0  0  0  0  0  0  0  0  0
   -1.0908    0.0775    0.0000 C   0  0  0  0  0  0  0  0  0  0  0  0
   -1.7948    0.7879    0.0000 C   0  0  0  0  0  0  0  0  0  0  0  0
   -1.5314    1.7525    0.0000 C   0  0  0  0  0  0  0  0  0  0  0  0
   -0.5644    2.0069    0.0000 C   0  0  0  0  0  0  0  0  0  0  0  0
   -0.3012    2.9717    0.0000 C   0  0  0  0  0  0  0  0  0  0  0  0
    0.6660    3.2259    0.0000 C   0  0  0  0  0  0  0  0  0  0  0  0
    1.3698    2.5157    0.0000 C   0  0  0  0  0  0  0  0  0  0  0  0
    1.1066    1.5509    0.0000 C   0  0  0  0  0  0  0  0  0  0  0  0
    0.1394    1.2965    0.0000 C   0  0  0  0  0  0  0  0  0  0  0  0
    1.0206   -2.0535    0.0000 C   0  0  0  0  0  0  0  0  0  0  0  0
    0.7574   -3.0183    0.0000 R   0  0  0  0  0  0  0  0  0  0  0  0
    1.9878   -1.7993    0.0000 O   0  0  0  0  0  0  0  0  0  0  0  0
  1  2  1  0
  2  3  1  0
  2  4  1  0
  4  5  1  6
  4  6  1  0
  6  7  1  0
  7  8  2  0
  8  9  1  0
  9 10  2  0
 10 11  1  0
 11 12  2  0
 12 13  1  0
 13 14  2  0
 14 15  1  0
 15 16  2  0
  4 17  1  0
 17 18  1  0
 17 19  2  0
 16  7  1  0
 16 11  1  0
M  ISO  3   1   1   3   3  18   2
V    1 *
V    3 *
V   18 *
M  END
>  <symbol>  (827) 
aMe1Nal

>  <m_Rgroups>  (827) 
[H],[OH],[H],None,None,None

>  <m_abbr>  (827) 
aMe1Nal

>  <m_name>  (827) 
L-alpha-methyl-1-naphthylalanine

>  <m_type>  (827) 
aa

>  <m_subtype>  (827) 
modified

>  <m_chem_types>  (827) 
1:backbone_n,2:backbone_c,3:backbone_n_mod

$$$$

     RDKit          2D

 19 20  0  0  0  0  0  0  0  0999 V2000
   -1.3582   -1.7839    0.0000 R   0  0  0  0  0  0  0  0  0  0  0  0
   -0.3936   -2.0471    0.0000 N   0  0  0  0  0  0  0  0  0  0  0  0
   -0.1392   -3.0141    0.0000 R   0  0  0  0  0  0  0  0  0  0  0  0
    0.3168   -1.3433    0.0000 C   0  0  0  0  0  0  0  0  0  0  0  0
   -0.6478   -1.0799    0.0000 C   0  0  0  0  0  0  0  0  0  0  0  0
    0.5800   -0.3785    0.0000 C   0  0  0  0  0  0  0  0  0  0  0  0
   -0.1238    0.3319    0.0000 C   0  0  0  0  0  0  0  0  0  0  0  0
   -1.0908    0.0775    0.0000 C   0  0  0  0  0  0  0  0  0  0  0  0
   -1.7948    0.7879    0.0000 C   0  0  0  0  0  0  0  0  0  0  0  0
   -1.5314    1.7525    0.0000 C   0  0  0  0  0  0  0  0  0  0  0  0
   -0.5644    2.0069    0.0000 C   0  0  0  0  0  0  0  0  0  0  0  0
   -0.3012    2.9717    0.0000 C   0  0  0  0  0  0  0  0  0  0  0  0
    0.6660    3.2259    0.0000 C   0  0  0  0  0  0  0  0  0  0  0  0
    1.3698    2.5157    0.0000 C   0  0  0  0  0  0  0  0  0  0  0  0
    1.1066    1.5509    0.0000 C   0  0  0  0  0  0  0  0  0  0  0  0
    0.1394    1.2965    0.0000 C   0  0  0  0  0  0  0  0  0  0  0  0
    1.0206   -2.0535    0.0000 C   0  0  0  0  0  0  0  0  0  0  0  0
    0.7574   -3.0183    0.0000 R   0  0  0  0  0  0  0  0  0  0  0  0
    1.9878   -1.7993    0.0000 O   0  0  0  0  0  0  0  0  0  0  0  0
  1  2  1  0
  2  3  1  0
  2  4  1  0
  4  5  1  1
  4  6  1  0
  6  7  1  0
  7  8  2  0
  8  9  1  0
  9 10  2  0
 10 11  1  0
 11 12  2  0
 12 13  1  0
 13 14  2  0
 14 15  1  0
 15 16  2  0
  4 17  1  0
 17 18  1  0
 17 19  2  0
 16  7  1  0
 16 11  1  0
M  ISO  3   1   1   3   3  18   2
V    1 *
V    3 *
V   18 *
M  END
>  <symbol>  (828) 
D_aMe1Nal

>  <m_Rgroups>  (828) 
[H],[OH],[H],None,None,None

>  <m_abbr>  (828) 
D_aMe1Nal

>  <m_name>  (828) 
D-alpha-methyl-1-naphthylalanine

>  <m_type>  (828) 
aa

>  <m_subtype>  (828) 
modified

>  <m_chem_types>  (828) 
1:backbone_n,2:backbone_c,3:backbone_n_mod

$$$$

     RDKit          2D

 19 20  0  0  0  0  0  0  0  0999 V2000
   -0.9131   -1.9063    0.0000 R   0  0  0  0  0  0  0  0  0  0  0  0
    0.0523   -2.1669    0.0000 N   0  0  0  0  0  0  0  0  0  0  0  0
    0.3093   -3.1333    0.0000 R   0  0  0  0  0  0  0  0  0  0  0  0
    0.7607   -1.4611    0.0000 C   0  0  0  0  0  0  0  0  0  0  0  0
   -0.2047   -1.2005    0.0000 C   0  0  0  0  0  0  0  0  0  0  0  0
    1.0213   -0.4957    0.0000 C   0  0  0  0  0  0  0  0  0  0  0  0
    0.3155    0.2127    0.0000 C   0  0  0  0  0  0  0  0  0  0  0  0
   -0.6509   -0.0443    0.0000 C   0  0  0  0  0  0  0  0  0  0  0  0
   -1.3569    0.6641    0.0000 C   0  0  0  0  0  0  0  0  0  0  0  0
   -1.0963    1.6295    0.0000 C   0  0  0  0  0  0  0  0  0  0  0  0
   -1.8021    2.3377    0.0000 C   0  0  0  0  0  0  0  0  0  0  0  0
   -1.5415    3.3033    0.0000 C   0  0  0  0  0  0  0  0  0  0  0  0
   -0.5751    3.5603    0.0000 C   0  0  0  0  0  0  0  0  0  0  0  0
    0.1307    2.8519    0.0000 C   0  0  0  0  0  0  0  0  0  0  0  0
   -0.1299    1.8865    0.0000 C   0  0  0  0  0  0  0  0  0  0  0  0
    0.5759    1.1781    0.0000 C   0  0  0  0  0  0  0  0  0  0  0  0
    1.4665   -2.1695    0.0000 C   0  0  0  0  0  0  0  0  0  0  0  0
    1.2059   -3.1349    0.0000 R   0  0  0  0  0  0  0  0  0  0  0  0
    2.4329   -1.9123    0.0000 O   0  0  0  0  0  0  0  0  0  0  0  0
  1  2  1  0
  2  3  1  0
  2  4  1  0
  4  5  1  6
  4  6  1  0
  6  7  1  0
  7  8  1  0
  8  9  2  0
  9 10  1  0
 10 11  2  0
 11 12  1  0
 12 13  2  0
 13 14  1  0
 14 15  2  0
 15 16  1  0
  4 17  1  0
 17 18  1  0
 17 19  2  0
 16  7  2  0
 15 10  1  0
M  ISO  3   1   1   3   3  18   2
V    1 *
V    3 *
V   18 *
M  END
>  <symbol>  (829) 
aMe2Nal

>  <m_Rgroups>  (829) 
[H],[OH],[H],None,None,None

>  <m_abbr>  (829) 
aMe2Nal

>  <m_name>  (829) 
L-alpha-methyl-2-naphthylalanine

>  <m_type>  (829) 
aa

>  <m_subtype>  (829) 
modified

>  <m_chem_types>  (829) 
1:backbone_n,2:backbone_c,3:backbone_n_mod

$$$$

     RDKit          2D

 19 20  0  0  0  0  0  0  0  0999 V2000
   -0.9131   -1.9063    0.0000 R   0  0  0  0  0  0  0  0  0  0  0  0
    0.0523   -2.1669    0.0000 N   0  0  0  0  0  0  0  0  0  0  0  0
    0.3093   -3.1333    0.0000 R   0  0  0  0  0  0  0  0  0  0  0  0
    0.7607   -1.4611    0.0000 C   0  0  0  0  0  0  0  0  0  0  0  0
   -0.2047   -1.2005    0.0000 C   0  0  0  0  0  0  0  0  0  0  0  0
    1.0213   -0.4957    0.0000 C   0  0  0  0  0  0  0  0  0  0  0  0
    0.3155    0.2127    0.0000 C   0  0  0  0  0  0  0  0  0  0  0  0
   -0.6509   -0.0443    0.0000 C   0  0  0  0  0  0  0  0  0  0  0  0
   -1.3569    0.6641    0.0000 C   0  0  0  0  0  0  0  0  0  0  0  0
   -1.0963    1.6295    0.0000 C   0  0  0  0  0  0  0  0  0  0  0  0
   -1.8021    2.3377    0.0000 C   0  0  0  0  0  0  0  0  0  0  0  0
   -1.5415    3.3033    0.0000 C   0  0  0  0  0  0  0  0  0  0  0  0
   -0.5751    3.5603    0.0000 C   0  0  0  0  0  0  0  0  0  0  0  0
    0.1307    2.8519    0.0000 C   0  0  0  0  0  0  0  0  0  0  0  0
   -0.1299    1.8865    0.0000 C   0  0  0  0  0  0  0  0  0  0  0  0
    0.5759    1.1781    0.0000 C   0  0  0  0  0  0  0  0  0  0  0  0
    1.4665   -2.1695    0.0000 C   0  0  0  0  0  0  0  0  0  0  0  0
    1.2059   -3.1349    0.0000 R   0  0  0  0  0  0  0  0  0  0  0  0
    2.4329   -1.9123    0.0000 O   0  0  0  0  0  0  0  0  0  0  0  0
  1  2  1  0
  2  3  1  0
  2  4  1  0
  4  5  1  1
  4  6  1  0
  6  7  1  0
  7  8  1  0
  8  9  2  0
  9 10  1  0
 10 11  2  0
 11 12  1  0
 12 13  2  0
 13 14  1  0
 14 15  2  0
 15 16  1  0
  4 17  1  0
 17 18  1  0
 17 19  2  0
 16  7  2  0
 15 10  1  0
M  ISO  3   1   1   3   3  18   2
V    1 *
V    3 *
V   18 *
M  END
>  <symbol>  (830) 
D_aMe2Nal

>  <m_Rgroups>  (830) 
[H],[OH],[H],None,None,None

>  <m_abbr>  (830) 
D_aMe2Nal

>  <m_name>  (830) 
D-alpha-methyl-2-naphthylalanine

>  <m_type>  (830) 
aa

>  <m_subtype>  (830) 
modified

>  <m_chem_types>  (830) 
1:backbone_n,2:backbone_c,3:backbone_n_mod

$$$$

     RDKit          2D

 15 15  0  0  0  0  0  0  0  0999 V2000
   -1.1656   -1.1028    0.0000 R   0  0  0  0  0  0  0  0  0  0  0  0
   -0.2002   -1.3634    0.0000 N   0  0  0  0  0  0  0  0  0  0  0  0
    0.0568   -2.3296    0.0000 R   0  0  0  0  0  0  0  0  0  0  0  0
    0.5082   -0.6574    0.0000 C   0  0  0  0  0  0  0  0  0  0  0  0
   -0.4574   -0.3970    0.0000 C   0  0  0  0  0  0  0  0  0  0  0  0
    0.7686    0.3080    0.0000 C   0  0  0  0  0  0  0  0  0  0  0  0
    0.0628    1.0164    0.0000 C   0  0  0  0  0  0  0  0  0  0  0  0
   -0.9036    0.7592    0.0000 C   0  0  0  0  0  0  0  0  0  0  0  0
   -1.6094    1.4676    0.0000 C   0  0  0  0  0  0  0  0  0  0  0  0
   -1.3488    2.4330    0.0000 C   0  0  0  0  0  0  0  0  0  0  0  0
   -0.3824    2.6900    0.0000 C   0  0  0  0  0  0  0  0  0  0  0  0
    0.3234    1.9818    0.0000 C   0  0  0  0  0  0  0  0  0  0  0  0
    1.2140   -1.3658    0.0000 C   0  0  0  0  0  0  0  0  0  0  0  0
    0.9534   -2.3312    0.0000 R   0  0  0  0  0  0  0  0  0  0  0  0
    2.1804   -1.1088    0.0000 O   0  0  0  0  0  0  0  0  0  0  0  0
  1  2  1  0
  2  3  1  0
  2  4  1  0
  4  5  1  6
  4  6  1  0
  6  7  1  0
  7  8  1  0
  8  9  1  0
  9 10  1  0
 10 11  1  0
 11 12  1  0
  4 13  1  0
 13 14  1  0
 13 15  2  0
 12  7  1  0
M  ISO  3   1   1   3   3  14   2
V    1 *
V    3 *
V   14 *
M  END
>  <symbol>  (831) 
aMeCha

>  <m_Rgroups>  (831) 
[H],[OH],[H],None,None,None

>  <m_abbr>  (831) 
aMeCha

>  <m_name>  (831) 
L-alpha-methylcyclohexylalanine

>  <m_type>  (831) 
aa

>  <m_subtype>  (831) 
modified

>  <m_chem_types>  (831) 
1:backbone_n,2:backbone_c,3:backbone_n_mod

$$$$

     RDKit          2D

 15 15  0  0  0  0  0  0  0  0999 V2000
   -1.1656   -1.1028    0.0000 R   0  0  0  0  0  0  0  0  0  0  0  0
   -0.2002   -1.3634    0.0000 N   0  0  0  0  0  0  0  0  0  0  0  0
    0.0568   -2.3296    0.0000 R   0  0  0  0  0  0  0  0  0  0  0  0
    0.5082   -0.6574    0.0000 C   0  0  0  0  0  0  0  0  0  0  0  0
   -0.4574   -0.3970    0.0000 C   0  0  0  0  0  0  0  0  0  0  0  0
    0.7686    0.3080    0.0000 C   0  0  0  0  0  0  0  0  0  0  0  0
    0.0628    1.0164    0.0000 C   0  0  0  0  0  0  0  0  0  0  0  0
   -0.9036    0.7592    0.0000 C   0  0  0  0  0  0  0  0  0  0  0  0
   -1.6094    1.4676    0.0000 C   0  0  0  0  0  0  0  0  0  0  0  0
   -1.3488    2.4330    0.0000 C   0  0  0  0  0  0  0  0  0  0  0  0
   -0.3824    2.6900    0.0000 C   0  0  0  0  0  0  0  0  0  0  0  0
    0.3234    1.9818    0.0000 C   0  0  0  0  0  0  0  0  0  0  0  0
    1.2140   -1.3658    0.0000 C   0  0  0  0  0  0  0  0  0  0  0  0
    0.9534   -2.3312    0.0000 R   0  0  0  0  0  0  0  0  0  0  0  0
    2.1804   -1.1088    0.0000 O   0  0  0  0  0  0  0  0  0  0  0  0
  1  2  1  0
  2  3  1  0
  2  4  1  0
  4  5  1  1
  4  6  1  0
  6  7  1  0
  7  8  1  0
  8  9  1  0
  9 10  1  0
 10 11  1  0
 11 12  1  0
  4 13  1  0
 13 14  1  0
 13 15  2  0
 12  7  1  0
M  ISO  3   1   1   3   3  14   2
V    1 *
V    3 *
V   14 *
M  END
>  <symbol>  (832) 
D_aMeCha

>  <m_Rgroups>  (832) 
[H],[OH],[H],None,None,None

>  <m_abbr>  (832) 
D_aMeCha

>  <m_name>  (832) 
D-alpha-methylcyclohexylalanine

>  <m_type>  (832) 
aa

>  <m_subtype>  (832) 
modified

>  <m_chem_types>  (832) 
1:backbone_n,2:backbone_c,3:backbone_n_mod

$$$$

     RDKit          2D

 14 14  0  0  0  0  0  0  0  0999 V2000
   -1.8299   -0.8822    0.0000 R   0  0  0  0  0  0  0  0  0  0  0  0
   -0.8653   -1.1456    0.0000 N   0  0  0  0  0  0  0  0  0  0  0  0
   -0.6109   -2.1126    0.0000 R   0  0  0  0  0  0  0  0  0  0  0  0
   -0.1549   -0.4416    0.0000 C   0  0  0  0  0  0  0  0  0  0  0  0
   -1.1195   -0.1784    0.0000 C   0  0  0  0  0  0  0  0  0  0  0  0
    0.1083    0.5230    0.0000 C   0  0  0  0  0  0  0  0  0  0  0  0
   -0.5955    1.2334    0.0000 C   0  0  0  0  0  0  0  0  0  0  0  0
   -0.3323    2.1980    0.0000 C   0  0  0  0  0  0  0  0  0  0  0  0
    0.6349    2.4524    0.0000 C   0  0  0  0  0  0  0  0  0  0  0  0
    1.3387    1.7420    0.0000 C   0  0  0  0  0  0  0  0  0  0  0  0
    1.0755    0.7774    0.0000 C   0  0  0  0  0  0  0  0  0  0  0  0
    0.5489   -1.1520    0.0000 C   0  0  0  0  0  0  0  0  0  0  0  0
    0.2857   -2.1168    0.0000 R   0  0  0  0  0  0  0  0  0  0  0  0
    1.5161   -0.8976    0.0000 O   0  0  0  0  0  0  0  0  0  0  0  0
  1  2  1  0
  2  3  1  0
  2  4  1  0
  4  5  1  6
  4  6  1  0
  6  7  1  0
  7  8  1  0
  8  9  1  0
  9 10  1  0
 10 11  1  0
  4 12  1  0
 12 13  1  0
 12 14  2  0
 11  6  1  0
M  ISO  3   1   1   3   3  13   2
V    1 *
V    3 *
V   13 *
M  END
>  <symbol>  (833) 
aMeChg

>  <m_Rgroups>  (833) 
[H],[OH],[H],None,None,None

>  <m_abbr>  (833) 
aMeChg

>  <m_name>  (833) 
L-alpha-methylcyclohexylglycine

>  <m_type>  (833) 
aa

>  <m_subtype>  (833) 
modified

>  <m_chem_types>  (833) 
1:backbone_n,2:backbone_c,3:backbone_n_mod

$$$$

     RDKit          2D

 14 14  0  0  0  0  0  0  0  0999 V2000
   -1.8299   -0.8822    0.0000 R   0  0  0  0  0  0  0  0  0  0  0  0
   -0.8653   -1.1456    0.0000 N   0  0  0  0  0  0  0  0  0  0  0  0
   -0.6109   -2.1126    0.0000 R   0  0  0  0  0  0  0  0  0  0  0  0
   -0.1549   -0.4416    0.0000 C   0  0  0  0  0  0  0  0  0  0  0  0
   -1.1195   -0.1784    0.0000 C   0  0  0  0  0  0  0  0  0  0  0  0
    0.1083    0.5230    0.0000 C   0  0  0  0  0  0  0  0  0  0  0  0
   -0.5955    1.2334    0.0000 C   0  0  0  0  0  0  0  0  0  0  0  0
   -0.3323    2.1980    0.0000 C   0  0  0  0  0  0  0  0  0  0  0  0
    0.6349    2.4524    0.0000 C   0  0  0  0  0  0  0  0  0  0  0  0
    1.3387    1.7420    0.0000 C   0  0  0  0  0  0  0  0  0  0  0  0
    1.0755    0.7774    0.0000 C   0  0  0  0  0  0  0  0  0  0  0  0
    0.5489   -1.1520    0.0000 C   0  0  0  0  0  0  0  0  0  0  0  0
    0.2857   -2.1168    0.0000 R   0  0  0  0  0  0  0  0  0  0  0  0
    1.5161   -0.8976    0.0000 O   0  0  0  0  0  0  0  0  0  0  0  0
  1  2  1  0
  2  3  1  0
  2  4  1  0
  4  5  1  1
  4  6  1  0
  6  7  1  0
  7  8  1  0
  8  9  1  0
  9 10  1  0
 10 11  1  0
  4 12  1  0
 12 13  1  0
 12 14  2  0
 11  6  1  0
M  ISO  3   1   1   3   3  13   2
V    1 *
V    3 *
V   13 *
M  END
>  <symbol>  (834) 
D_aMeChg

>  <m_Rgroups>  (834) 
[H],[OH],[H],None,None,None

>  <m_abbr>  (834) 
D_aMeChg

>  <m_name>  (834) 
D-alpha-methylcyclohexylglycine

>  <m_type>  (834) 
aa

>  <m_subtype>  (834) 
modified

>  <m_chem_types>  (834) 
1:backbone_n,2:backbone_c,3:backbone_n_mod

$$$$

     RDKit          2D

 21 22  0  0  0  0  0  0  0  0999 V2000
   -0.3770   -2.2027    0.0000 R   0  0  0  0  0  0  0  0  0  0  0  0
    0.5884   -2.4633    0.0000 N   0  0  0  0  0  0  0  0  0  0  0  0
    0.8456   -3.4295    0.0000 R   0  0  0  0  0  0  0  0  0  0  0  0
    1.2968   -1.7573    0.0000 C   0  0  0  0  0  0  0  0  0  0  0  0
    0.3314   -1.4969    0.0000 C   0  0  0  0  0  0  0  0  0  0  0  0
    1.5574   -0.7919    0.0000 C   0  0  0  0  0  0  0  0  0  0  0  0
    0.8516   -0.0835    0.0000 C   0  0  0  0  0  0  0  0  0  0  0  0
   -0.1148   -0.3407    0.0000 C   0  0  0  0  0  0  0  0  0  0  0  0
   -0.8208    0.3677    0.0000 C   0  0  0  0  0  0  0  0  0  0  0  0
   -0.5602    1.3331    0.0000 C   0  0  0  0  0  0  0  0  0  0  0  0
   -1.2660    2.0415    0.0000 C   0  0  0  0  0  0  0  0  0  0  0  0
   -2.2324    1.7843    0.0000 C   0  0  0  0  0  0  0  0  0  0  0  0
   -2.9382    2.4927    0.0000 C   0  0  0  0  0  0  0  0  0  0  0  0
   -2.6776    3.4581    0.0000 C   0  0  0  0  0  0  0  0  0  0  0  0
   -1.7112    3.7153    0.0000 C   0  0  0  0  0  0  0  0  0  0  0  0
   -1.0054    3.0069    0.0000 C   0  0  0  0  0  0  0  0  0  0  0  0
    0.4062    1.5901    0.0000 C   0  0  0  0  0  0  0  0  0  0  0  0
    1.1120    0.8819    0.0000 C   0  0  0  0  0  0  0  0  0  0  0  0
    2.0026   -2.4657    0.0000 C   0  0  0  0  0  0  0  0  0  0  0  0
    1.7420   -3.4311    0.0000 R   0  0  0  0  0  0  0  0  0  0  0  0
    2.9690   -2.2087    0.0000 O   0  0  0  0  0  0  0  0  0  0  0  0
  1  2  1  0
  2  3  1  0
  2  4  1  0
  4  5  1  6
  4  6  1  0
  6  7  1  0
  7  8  1  0
  8  9  2  0
  9 10  1  0
 10 11  1  0
 11 12  2  0
 12 13  1  0
 13 14  2  0
 14 15  1  0
 15 16  2  0
 10 17  2  0
 17 18  1  0
  4 19  1  0
 19 20  1  0
 19 21  2  0
 18  7  2  0
 16 11  1  0
M  ISO  3   1   1   3   3  20   2
V    1 *
V    3 *
V   20 *
M  END
>  <symbol>  (835) 
aMeBip

>  <m_Rgroups>  (835) 
[H],[OH],[H],None,None,None

>  <m_abbr>  (835) 
aMeBip

>  <m_name>  (835) 
L-alpha-methyl-4-biphenylalanine

>  <m_type>  (835) 
aa

>  <m_subtype>  (835) 
modified

>  <m_chem_types>  (835) 
1:backbone_n,2:backbone_c,3:backbone_n_mod

$$$$

     RDKit          2D

 21 22  0  0  0  0  0  0  0  0999 V2000
   -0.3770   -2.2027    0.0000 R   0  0  0  0  0  0  0  0  0  0  0  0
    0.5884   -2.4633    0.0000 N   0  0  0  0  0  0  0  0  0  0  0  0
    0.8456   -3.4295    0.0000 R   0  0  0  0  0  0  0  0  0  0  0  0
    1.2968   -1.7573    0.0000 C   0  0  0  0  0  0  0  0  0  0  0  0
    0.3314   -1.4969    0.0000 C   0  0  0  0  0  0  0  0  0  0  0  0
    1.5574   -0.7919    0.0000 C   0  0  0  0  0  0  0  0  0  0  0  0
    0.8516   -0.0835    0.0000 C   0  0  0  0  0  0  0  0  0  0  0  0
   -0.1148   -0.3407    0.0000 C   0  0  0  0  0  0  0  0  0  0  0  0
   -0.8208    0.3677    0.0000 C   0  0  0  0  0  0  0  0  0  0  0  0
   -0.5602    1.3331    0.0000 C   0  0  0  0  0  0  0  0  0  0  0  0
   -1.2660    2.0415    0.0000 C   0  0  0  0  0  0  0  0  0  0  0  0
   -2.2324    1.7843    0.0000 C   0  0  0  0  0  0  0  0  0  0  0  0
   -2.9382    2.4927    0.0000 C   0  0  0  0  0  0  0  0  0  0  0  0
   -2.6776    3.4581    0.0000 C   0  0  0  0  0  0  0  0  0  0  0  0
   -1.7112    3.7153    0.0000 C   0  0  0  0  0  0  0  0  0  0  0  0
   -1.0054    3.0069    0.0000 C   0  0  0  0  0  0  0  0  0  0  0  0
    0.4062    1.5901    0.0000 C   0  0  0  0  0  0  0  0  0  0  0  0
    1.1120    0.8819    0.0000 C   0  0  0  0  0  0  0  0  0  0  0  0
    2.0026   -2.4657    0.0000 C   0  0  0  0  0  0  0  0  0  0  0  0
    1.7420   -3.4311    0.0000 R   0  0  0  0  0  0  0  0  0  0  0  0
    2.9690   -2.2087    0.0000 O   0  0  0  0  0  0  0  0  0  0  0  0
  1  2  1  0
  2  3  1  0
  2  4  1  0
  4  5  1  1
  4  6  1  0
  6  7  1  0
  7  8  1  0
  8  9  2  0
  9 10  1  0
 10 11  1  0
 11 12  2  0
 12 13  1  0
 13 14  2  0
 14 15  1  0
 15 16  2  0
 10 17  2  0
 17 18  1  0
  4 19  1  0
 19 20  1  0
 19 21  2  0
 18  7  2  0
 16 11  1  0
M  ISO  3   1   1   3   3  20   2
V    1 *
V    3 *
V   20 *
M  END
>  <symbol>  (836) 
D_aMeBip

>  <m_Rgroups>  (836) 
[H],[OH],[H],None,None,None

>  <m_abbr>  (836) 
D_aMeBip

>  <m_name>  (836) 
D-alpha-methyl-4-biphenylalanine

>  <m_type>  (836) 
aa

>  <m_subtype>  (836) 
modified

>  <m_chem_types>  (836) 
1:backbone_n,2:backbone_c,3:backbone_n_mod

$$$$

     RDKit          2D

 20 21  0  0  0  0  0  0  0  0999 V2000
   -1.1769   -2.0168    0.0000 R   0  0  0  0  0  0  0  0  0  0  0  0
   -0.2105   -2.2744    0.0000 N   0  0  0  0  0  0  0  0  0  0  0  0
    0.0495   -3.2400    0.0000 R   0  0  0  0  0  0  0  0  0  0  0  0
    0.4957   -1.5664    0.0000 C   0  0  0  0  0  0  0  0  0  0  0  0
   -0.4707   -1.3088    0.0000 C   0  0  0  0  0  0  0  0  0  0  0  0
    0.7531   -0.6002    0.0000 C   0  0  0  0  0  0  0  0  0  0  0  0
    0.0453    0.1060    0.0000 C   0  0  0  0  0  0  0  0  0  0  0  0
   -0.9423   -0.0516    0.0000 C   0  0  0  0  0  0  0  0  0  0  0  0
   -1.3973    0.8388    0.0000 N   0  0  0  0  0  0  0  0  0  0  0  0
   -2.3851    0.9940    0.0000 R   0  0  0  0  0  0  0  0  0  0  0  0
   -0.6911    1.5468    0.0000 C   0  0  0  0  0  0  0  0  0  0  0  0
   -0.7447    2.5454    0.0000 C   0  0  0  0  0  0  0  0  0  0  0  0
    0.0933    3.0910    0.0000 C   0  0  0  0  0  0  0  0  0  0  0  0
    0.0397    4.0896    0.0000 F   0  0  0  0  0  0  0  0  0  0  0  0
    0.9849    2.6380    0.0000 C   0  0  0  0  0  0  0  0  0  0  0  0
    1.0385    1.6396    0.0000 C   0  0  0  0  0  0  0  0  0  0  0  0
    0.2005    1.0938    0.0000 C   0  0  0  0  0  0  0  0  0  0  0  0
    1.2035   -2.2726    0.0000 C   0  0  0  0  0  0  0  0  0  0  0  0
    0.9459   -3.2390    0.0000 R   0  0  0  0  0  0  0  0  0  0  0  0
    2.1693   -2.0126    0.0000 O   0  0  0  0  0  0  0  0  0  0  0  0
  1  2  1  0
  2  3  1  0
  2  4  1  0
  4  5  1  0
  4  6  1  0
  6  7  1  0
  7  8  2  0
  8  9  1  0
  9 10  1  0
  9 11  1  0
 11 12  1  0
 12 13  2  0
 13 14  1  0
 13 15  1  0
 15 16  2  0
 16 17  1  0
  4 18  1  0
 18 19  1  0
 18 20  2  0
 17  7  1  0
 17 11  2  0
M  ISO  4   1   1   3   3  10   4  19   2
V    1 *
V    3 *
V   10 *
V   19 *
M  END
>  <symbol>  (837) 
aMeTrp_5F

>  <m_Rgroups>  (837) 
[H],[OH],[H],[H],None,None

>  <m_abbr>  (837) 
aMeTrp_5F

>  <m_name>  (837) 
L-alpha-methyl-5-fluorotryptophan

>  <m_type>  (837) 
aa

>  <m_subtype>  (837) 
modified

>  <m_chem_types>  (837) 
1:backbone_n,2:backbone_c,3:backbone_n_mod,4:aromatic_nh

$$$$

     RDKit          2D

 20 21  0  0  0  0  0  0  0  0999 V2000
   -1.1769   -2.0168    0.0000 R   0  0  0  0  0  0  0  0  0  0  0  0
   -0.2105   -2.2744    0.0000 N   0  0  0  0  0  0  0  0  0  0  0  0
    0.0495   -3.2400    0.0000 R   0  0  0  0  0  0  0  0  0  0  0  0
    0.4957   -1.5664    0.0000 C   0  0  0  0  0  0  0  0  0  0  0  0
   -0.4707   -1.3088    0.0000 C   0  0  0  0  0  0  0  0  0  0  0  0
    0.7531   -0.6002    0.0000 C   0  0  0  0  0  0  0  0  0  0  0  0
    0.0453    0.1060    0.0000 C   0  0  0  0  0  0  0  0  0  0  0  0
   -0.9423   -0.0516    0.0000 C   0  0  0  0  0  0  0  0  0  0  0  0
   -1.3973    0.8388    0.0000 N   0  0  0  0  0  0  0  0  0  0  0  0
   -2.3851    0.9940    0.0000 R   0  0  0  0  0  0  0  0  0  0  0  0
   -0.6911    1.5468    0.0000 C   0  0  0  0  0  0  0  0  0  0  0  0
   -0.7447    2.5454    0.0000 C   0  0  0  0  0  0  0  0  0  0  0  0
    0.0933    3.0910    0.0000 C   0  0  0  0  0  0  0  0  0  0  0  0
    0.0397    4.0896    0.0000 F   0  0  0  0  0  0  0  0  0  0  0  0
    0.9849    2.6380    0.0000 C   0  0  0  0  0  0  0  0  0  0  0  0
    1.0385    1.6396    0.0000 C   0  0  0  0  0  0  0  0  0  0  0  0
    0.2005    1.0938    0.0000 C   0  0  0  0  0  0  0  0  0  0  0  0
    1.2035   -2.2726    0.0000 C   0  0  0  0  0  0  0  0  0  0  0  0
    0.9459   -3.2390    0.0000 R   0  0  0  0  0  0  0  0  0  0  0  0
    2.1693   -2.0126    0.0000 O   0  0  0  0  0  0  0  0  0  0  0  0
  1  2  1  0
  2  3  1  0
  2  4  1  0
  4  5  1  1
  4  6  1  0
  6  7  1  0
  7  8  2  0
  8  9  1  0
  9 10  1  0
  9 11  1  0
 11 12  1  0
 12 13  2  0
 13 14  1  0
 13 15  1  0
 15 16  2  0
 16 17  1  0
  4 18  1  0
 18 19  1  0
 18 20  2  0
 17  7  1  0
 17 11  2  0
M  ISO  4   1   1   3   3  10   4  19   2
V    1 *
V    3 *
V   10 *
V   19 *
M  END
>  <symbol>  (838) 
D_aMeTrp_5F

>  <m_Rgroups>  (838) 
[H],[OH],[H],[H],None,None

>  <m_abbr>  (838) 
D_aMeTrp_5F

>  <m_name>  (838) 
D-alpha-methyl-5-fluorotryptophan

>  <m_type>  (838) 
aa

>  <m_subtype>  (838) 
modified

>  <m_chem_types>  (838) 
1:backbone_n,2:backbone_c,3:backbone_n_mod,4:aromatic_nh

$$$$

     RDKit          2D

 19 20  0  0  0  0  0  0  0  0999 V2000
   -0.6960   -1.3181    0.0000 R   0  0  0  0  0  0  0  0  0  0  0  0
    0.2700   -1.5773    0.0000 N   0  0  0  0  0  0  0  0  0  0  0  0
    0.5282   -2.5435    0.0000 R   0  0  0  0  0  0  0  0  0  0  0  0
    0.9774   -0.8705    0.0000 C   0  0  0  0  0  0  0  0  0  0  0  0
    0.0114   -0.6113    0.0000 C   0  0  0  0  0  0  0  0  0  0  0  0
    1.2366    0.0953    0.0000 C   0  0  0  0  0  0  0  0  0  0  0  0
    0.5298    0.8027    0.0000 C   0  0  0  0  0  0  0  0  0  0  0  0
    0.6868    1.7903    0.0000 C   0  0  0  0  0  0  0  0  0  0  0  0
   -0.2040    2.2447    0.0000 N   0  0  0  0  0  0  0  0  0  0  0  0
   -0.3600    3.2323    0.0000 R   0  0  0  0  0  0  0  0  0  0  0  0
   -0.9114    1.5379    0.0000 C   0  0  0  0  0  0  0  0  0  0  0  0
   -1.9100    1.5907    0.0000 N   0  0  0  0  0  0  0  0  0  0  0  0
   -2.4550    0.7523    0.0000 C   0  0  0  0  0  0  0  0  0  0  0  0
   -2.0014   -0.1389    0.0000 C   0  0  0  0  0  0  0  0  0  0  0  0
   -1.0028   -0.1917    0.0000 C   0  0  0  0  0  0  0  0  0  0  0  0
   -0.4578    0.6467    0.0000 C   0  0  0  0  0  0  0  0  0  0  0  0
    1.6840   -1.5779    0.0000 C   0  0  0  0  0  0  0  0  0  0  0  0
    1.4248   -2.5439    0.0000 R   0  0  0  0  0  0  0  0  0  0  0  0
    2.6502   -1.3197    0.0000 O   0  0  0  0  0  0  0  0  0  0  0  0
  1  2  1  0
  2  3  1  0
  2  4  1  0
  4  5  1  0
  4  6  1  0
  6  7  1  0
  7  8  2  0
  8  9  1  0
  9 10  1  0
  9 11  1  0
 11 12  2  0
 12 13  1  0
 13 14  2  0
 14 15  1  0
 15 16  2  0
  4 17  1  0
 17 18  1  0
 17 19  2  0
 16  7  1  0
 16 11  1  0
M  ISO  4   1   1   3   3  10   4  18   2
V    1 *
V    3 *
V   10 *
V   18 *
M  END
>  <symbol>  (839) 
aMeTrp_7Aza

>  <m_Rgroups>  (839) 
[H],[OH],[H],[H],None,None

>  <m_abbr>  (839) 
aMeTrp_7Aza

>  <m_name>  (839) 
L-alpha-methyl-7-azatryptophan

>  <m_type>  (839) 
aa

>  <m_subtype>  (839) 
modified

>  <m_chem_types>  (839) 
1:backbone_n,2:backbone_c,3:backbone_n_mod,4:aromatic_nh

$$$$

     RDKit          2D

 19 20  0  0  0  0  0  0  0  0999 V2000
   -0.6960   -1.3181    0.0000 R   0  0  0  0  0  0  0  0  0  0  0  0
    0.2700   -1.5773    0.0000 N   0  0  0  0  0  0  0  0  0  0  0  0
    0.5282   -2.5435    0.0000 R   0  0  0  0  0  0  0  0  0  0  0  0
    0.9774   -0.8705    0.0000 C   0  0  0  0  0  0  0  0  0  0  0  0
    0.0114   -0.6113    0.0000 C   0  0  0  0  0  0  0  0  0  0  0  0
    1.2366    0.0953    0.0000 C   0  0  0  0  0  0  0  0  0  0  0  0
    0.5298    0.8027    0.0000 C   0  0  0  0  0  0  0  0  0  0  0  0
    0.6868    1.7903    0.0000 C   0  0  0  0  0  0  0  0  0  0  0  0
   -0.2040    2.2447    0.0000 N   0  0  0  0  0  0  0  0  0  0  0  0
   -0.3600    3.2323    0.0000 R   0  0  0  0  0  0  0  0  0  0  0  0
   -0.9114    1.5379    0.0000 C   0  0  0  0  0  0  0  0  0  0  0  0
   -1.9100    1.5907    0.0000 N   0  0  0  0  0  0  0  0  0  0  0  0
   -2.4550    0.7523    0.0000 C   0  0  0  0  0  0  0  0  0  0  0  0
   -2.0014   -0.1389    0.0000 C   0  0  0  0  0  0  0  0  0  0  0  0
   -1.0028   -0.1917    0.0000 C   0  0  0  0  0  0  0  0  0  0  0  0
   -0.4578    0.6467    0.0000 C   0  0  0  0  0  0  0  0  0  0  0  0
    1.6840   -1.5779    0.0000 C   0  0  0  0  0  0  0  0  0  0  0  0
    1.4248   -2.5439    0.0000 R   0  0  0  0  0  0  0  0  0  0  0  0
    2.6502   -1.3197    0.0000 O   0  0  0  0  0  0  0  0  0  0  0  0
  1  2  1  0
  2  3  1  0
  2  4  1  0
  4  5  1  1
  4  6  1  0
  6  7  1  0
  7  8  2  0
  8  9  1  0
  9 10  1  0
  9 11  1  0
 11 12  2  0
 12 13  1  0
 13 14  2  0
 14 15  1  0
 15 16  2  0
  4 17  1  0
 17 18  1  0
 17 19  2  0
 16  7  1  0
 16 11  1  0
M  ISO  4   1   1   3   3  10   4  18   2
V    1 *
V    3 *
V   10 *
V   18 *
M  END
>  <symbol>  (840) 
D_aMeTrp_7Aza

>  <m_Rgroups>  (840) 
[H],[OH],[H],[H],None,None

>  <m_abbr>  (840) 
D_aMeTrp_7Aza

>  <m_name>  (840) 
D-alpha-methyl-7-azatryptophan

>  <m_type>  (840) 
aa

>  <m_subtype>  (840) 
modified

>  <m_chem_types>  (840) 
1:backbone_n,2:backbone_c,3:backbone_n_mod,4:aromatic_nh

$$$$

     RDKit          2D

 15 15  0  0  0  0  0  0  0  0999 V2000
   -1.5002    1.0679    0.0000 R   0  0  0  0  0  0  0  0  0  0  0  0
   -0.6346    0.5673    0.0000 N   0  0  0  0  0  0  0  0  0  0  0  0
    0.2318    1.0665    0.0000 R   0  0  0  0  0  0  0  0  0  0  0  0
   -0.6354   -0.4327    0.0000 C   0  0  0  0  0  0  0  0  0  0  0  0
   -1.5018   -0.9321    0.0000 C   0  0  0  0  0  0  0  0  0  0  0  0
   -2.3674   -0.4315    0.0000 C   0  0  0  0  0  0  0  0  0  0  0  0
   -3.2338   -0.9307    0.0000 R   0  0  0  0  0  0  0  0  0  0  0  0
   -2.3666    0.5685    0.0000 O   0  0  0  0  0  0  0  0  0  0  0  0
    0.2302   -0.9335    0.0000 C   0  0  0  0  0  0  0  0  0  0  0  0
    1.0964   -0.4343    0.0000 C   0  0  0  0  0  0  0  0  0  0  0  0
    1.0972    0.5659    0.0000 C   0  0  0  0  0  0  0  0  0  0  0  0
    1.9638    1.0651    0.0000 C   0  0  0  0  0  0  0  0  0  0  0  0
    2.8294    0.5645    0.0000 C   0  0  0  0  0  0  0  0  0  0  0  0
    2.8286   -0.4355    0.0000 C   0  0  0  0  0  0  0  0  0  0  0  0
    1.9622   -0.9347    0.0000 C   0  0  0  0  0  0  0  0  0  0  0  0
  1  2  1  0
  2  3  1  0
  2  4  1  0
  4  5  1  1
  5  6  1  0
  6  7  1  0
  6  8  2  0
  4  9  1  0
  9 10  1  0
 10 11  2  0
 11 12  1  0
 12 13  2  0
 13 14  1  0
 14 15  2  0
 15 10  1  0
M  ISO  3   1   1   3   3   7   2
V    1 *
V    3 *
V    7 *
M  END
>  <symbol>  (841) 
b3hPhe

>  <m_Rgroups>  (841) 
[H],[OH],[H],None,None,None

>  <m_abbr>  (841) 
b3hPhe

>  <m_name>  (841) 
L-beta3-homophenylalanine

>  <m_type>  (841) 
aa

>  <m_subtype>  (841) 
modified

>  <m_chem_types>  (841) 
1:backbone_n,2:backbone_c,3:backbone_n_mod

$$$$

     RDKit          2D

 12 11  0  0  0  0  0  0  0  0999 V2000
   -0.7242    1.2485    0.0000 R   0  0  0  0  0  0  0  0  0  0  0  0
    0.1428    0.7503    0.0000 N   0  0  0  0  0  0  0  0  0  0  0  0
    1.0078    1.2519    0.0000 R   0  0  0  0  0  0  0  0  0  0  0  0
    0.1448   -0.2497    0.0000 C   0  0  0  0  0  0  0  0  0  0  0  0
    1.0118   -0.7481    0.0000 C   0  0  0  0  0  0  0  0  0  0  0  0
    1.8768   -0.2463    0.0000 C   0  0  0  0  0  0  0  0  0  0  0  0
    2.7440   -0.7445    0.0000 R   0  0  0  0  0  0  0  0  0  0  0  0
    1.8748    0.7537    0.0000 O   0  0  0  0  0  0  0  0  0  0  0  0
   -0.7202   -0.7515    0.0000 C   0  0  0  0  0  0  0  0  0  0  0  0
   -1.5872   -0.2531    0.0000 C   0  0  0  0  0  0  0  0  0  0  0  0
   -2.4522   -0.7549    0.0000 S   0  0  0  0  0  0  0  0  0  0  0  0
   -3.3192   -0.2567    0.0000 C   0  0  0  0  0  0  0  0  0  0  0  0
  1  2  1  0
  2  3  1  0
  2  4  1  0
  4  5  1  6
  5  6  1  0
  6  7  1  0
  6  8  2  0
  4  9  1  0
  9 10  1  0
 10 11  1  0
 11 12  1  0
M  ISO  3   1   1   3   3   7   2
V    1 *
V    3 *
V    7 *
M  END
>  <symbol>  (842) 
b3hMet

>  <m_Rgroups>  (842) 
[H],[OH],[H],None,None,None

>  <m_abbr>  (842) 
b3hMet

>  <m_name>  (842) 
L-beta3-homomethionine

>  <m_type>  (842) 
aa

>  <m_subtype>  (842) 
modified

>  <m_chem_types>  (842) 
1:backbone_n,2:backbone_c,3:backbone_n_mod

$$$$

     RDKit          2D

 11 10  0  0  0  0  0  0  0  0999 V2000
   -1.0260    1.2251    0.0000 R   0  0  0  0  0  0  0  0  0  0  0  0
   -0.1590    0.7269    0.0000 N   0  0  0  0  0  0  0  0  0  0  0  0
    0.7060    1.2287    0.0000 R   0  0  0  0  0  0  0  0  0  0  0  0
   -0.1570   -0.2731    0.0000 C   0  0  0  0  0  0  0  0  0  0  0  0
    0.7102   -0.7713    0.0000 C   0  0  0  0  0  0  0  0  0  0  0  0
    1.5752   -0.2695    0.0000 C   0  0  0  0  0  0  0  0  0  0  0  0
    2.4422   -0.7679    0.0000 R   0  0  0  0  0  0  0  0  0  0  0  0
    1.5732    0.7303    0.0000 O   0  0  0  0  0  0  0  0  0  0  0  0
   -1.0220   -0.7747    0.0000 C   0  0  0  0  0  0  0  0  0  0  0  0
   -1.8890   -0.2765    0.0000 C   0  0  0  0  0  0  0  0  0  0  0  0
   -2.7540   -0.7783    0.0000 C   0  0  0  0  0  0  0  0  0  0  0  0
  1  2  1  0
  2  3  1  0
  2  4  1  0
  4  5  1  6
  5  6  1  0
  6  7  1  0
  6  8  2  0
  4  9  1  0
  9 10  1  0
 10 11  1  0
M  ISO  3   1   1   3   3   7   2
V    1 *
V    3 *
V    7 *
M  END
>  <symbol>  (843) 
b3hNva

>  <m_Rgroups>  (843) 
[H],[OH],[H],None,None,None

>  <m_abbr>  (843) 
b3hNva

>  <m_name>  (843) 
L-beta3-homonorvaline

>  <m_type>  (843) 
aa

>  <m_subtype>  (843) 
modified

>  <m_chem_types>  (843) 
1:backbone_n,2:backbone_c,3:backbone_n_mod

$$$$

     RDKit          2D

 15 15  0  0  0  0  0  0  0  0999 V2000
   -1.5002    1.0679    0.0000 R   0  0  0  0  0  0  0  0  0  0  0  0
   -0.6346    0.5673    0.0000 N   0  0  0  0  0  0  0  0  0  0  0  0
    0.2318    1.0665    0.0000 R   0  0  0  0  0  0  0  0  0  0  0  0
   -0.6354   -0.4327    0.0000 C   0  0  0  0  0  0  0  0  0  0  0  0
   -1.5018   -0.9321    0.0000 C   0  0  0  0  0  0  0  0  0  0  0  0
   -2.3674   -0.4315    0.0000 C   0  0  0  0  0  0  0  0  0  0  0  0
   -3.2338   -0.9307    0.0000 R   0  0  0  0  0  0  0  0  0  0  0  0
   -2.3666    0.5685    0.0000 O   0  0  0  0  0  0  0  0  0  0  0  0
    0.2302   -0.9335    0.0000 C   0  0  0  0  0  0  0  0  0  0  0  0
    1.0964   -0.4343    0.0000 C   0  0  0  0  0  0  0  0  0  0  0  0
    1.0972    0.5659    0.0000 C   0  0  0  0  0  0  0  0  0  0  0  0
    1.9638    1.0651    0.0000 C   0  0  0  0  0  0  0  0  0  0  0  0
    2.8294    0.5645    0.0000 C   0  0  0  0  0  0  0  0  0  0  0  0
    2.8286   -0.4355    0.0000 C   0  0  0  0  0  0  0  0  0  0  0  0
    1.9622   -0.9347    0.0000 C   0  0  0  0  0  0  0  0  0  0  0  0
  1  2  1  0
  2  3  1  0
  2  4  1  0
  4  5  1  1
  5  6  1  0
  6  7  1  0
  6  8  2  0
  4  9  1  0
  9 10  1  0
 10 11  1  0
 11 12  1  0
 12 13  1  0
 13 14  1  0
 14 15  1  0
 15 10  1  0
M  ISO  3   1   1   3   3   7   2
V    1 *
V    3 *
V    7 *
M  END
>  <symbol>  (844) 
b3hCha

>  <m_Rgroups>  (844) 
[H],[OH],[H],None,None,None

>  <m_abbr>  (844) 
b3hCha

>  <m_name>  (844) 
L-beta3-homocyclohexylalanine

>  <m_type>  (844) 
aa

>  <m_subtype>  (844) 
modified

>  <m_chem_types>  (844) 
1:backbone_n,2:backbone_c,3:backbone_n_mod

$$$$

     RDKit          2D

 14 14  0  0  0  0  0  0  0  0999 V2000
   -1.1147    1.6420    0.0000 R   0  0  0  0  0  0  0  0  0  0  0  0
   -0.2483    1.1426    0.0000 N   0  0  0  0  0  0  0  0  0  0  0  0
    0.6173    1.6434    0.0000 R   0  0  0  0  0  0  0  0  0  0  0  0
   -0.2475    0.1426    0.0000 C   0  0  0  0  0  0  0  0  0  0  0  0
   -1.1131   -0.3580    0.0000 C   0  0  0  0  0  0  0  0  0  0  0  0
   -1.9795    0.1414    0.0000 C   0  0  0  0  0  0  0  0  0  0  0  0
   -2.8451   -0.3594    0.0000 R   0  0  0  0  0  0  0  0  0  0  0  0
   -1.9803    1.1414    0.0000 O   0  0  0  0  0  0  0  0  0  0  0  0
    0.6187   -0.3566    0.0000 C   0  0  0  0  0  0  0  0  0  0  0  0
    0.6195   -1.3566    0.0000 C   0  0  0  0  0  0  0  0  0  0  0  0
    1.4861   -1.8558    0.0000 C   0  0  0  0  0  0  0  0  0  0  0  0
    2.3517   -1.3552    0.0000 C   0  0  0  0  0  0  0  0  0  0  0  0
    2.3509   -0.3552    0.0000 C   0  0  0  0  0  0  0  0  0  0  0  0
    1.4845    0.1440    0.0000 C   0  0  0  0  0  0  0  0  0  0  0  0
  1  2  1  0
  2  3  1  0
  2  4  1  0
  4  5  1  1
  5  6  1  0
  6  7  1  0
  6  8  2  0
  4  9  1  0
  9 10  1  0
 10 11  1  0
 11 12  1  0
 12 13  1  0
 13 14  1  0
 14  9  1  0
M  ISO  3   1   1   3   3   7   2
V    1 *
V    3 *
V    7 *
M  END
>  <symbol>  (845) 
b3hChg

>  <m_Rgroups>  (845) 
[H],[OH],[H],None,None,None

>  <m_abbr>  (845) 
b3hChg

>  <m_name>  (845) 
L-beta3-homocyclohexylglycine

>  <m_type>  (845) 
aa

>  <m_subtype>  (845) 
modified

>  <m_chem_types>  (845) 
1:backbone_n,2:backbone_c,3:backbone_n_mod

$$$$

     RDKit          2D

 19 20  0  0  0  0  0  0  0  0999 V2000
   -1.4606    2.6305    0.0000 R   0  0  0  0  0  0  0  0  0  0  0  0
   -0.5942    2.1311    0.0000 N   0  0  0  0  0  0  0  0  0  0  0  0
    0.2714    2.6319    0.0000 R   0  0  0  0  0  0  0  0  0  0  0  0
   -0.5934    1.1311    0.0000 C   0  0  0  0  0  0  0  0  0  0  0  0
   -1.4590    0.6305    0.0000 C   0  0  0  0  0  0  0  0  0  0  0  0
   -2.3254    1.1297    0.0000 C   0  0  0  0  0  0  0  0  0  0  0  0
   -3.1910    0.6291    0.0000 R   0  0  0  0  0  0  0  0  0  0  0  0
   -2.3262    2.1297    0.0000 O   0  0  0  0  0  0  0  0  0  0  0  0
    0.2730    0.6319    0.0000 C   0  0  0  0  0  0  0  0  0  0  0  0
    0.2738   -0.3683    0.0000 C   0  0  0  0  0  0  0  0  0  0  0  0
   -0.5920   -0.8689    0.0000 C   0  0  0  0  0  0  0  0  0  0  0  0
   -0.5912   -1.8689    0.0000 C   0  0  0  0  0  0  0  0  0  0  0  0
    0.2754   -2.3681    0.0000 C   0  0  0  0  0  0  0  0  0  0  0  0
    1.1410   -1.8675    0.0000 C   0  0  0  0  0  0  0  0  0  0  0  0
    2.0074   -2.3667    0.0000 C   0  0  0  0  0  0  0  0  0  0  0  0
    2.8730   -1.8661    0.0000 C   0  0  0  0  0  0  0  0  0  0  0  0
    2.8722   -0.8661    0.0000 C   0  0  0  0  0  0  0  0  0  0  0  0
    2.0058   -0.3669    0.0000 C   0  0  0  0  0  0  0  0  0  0  0  0
    1.1402   -0.8675    0.0000 C   0  0  0  0  0  0  0  0  0  0  0  0
  1  2  1  0
  2  3  1  0
  2  4  1  0
  4  5  1  1
  5  6  1  0
  6  7  1  0
  6  8  2  0
  4  9  1  0
  9 10  1  0
 10 11  2  0
 11 12  1  0
 12 13  2  0
 13 14  1  0
 14 15  2  0
 15 16  1  0
 16 17  2  0
 17 18  1  0
 18 19  2  0
 19 10  1  0
 19 14  1  0
M  ISO  3   1   1   3   3   7   2
V    1 *
V    3 *
V    7 *
M  END
>  <symbol>  (846) 
b3h1Nal

>  <m_Rgroups>  (846) 
[H],[OH],[H],None,None,None

>  <m_abbr>  (846) 
b3h1Nal

>  <m_name>  (846) 
L-beta3-homo-1-naphthylalanine

>  <m_type>  (846) 
aa

>  <m_subtype>  (846) 
modified

>  <m_chem_types>  (846) 
1:backbone_n,2:backbone_c,3:backbone_n_mod

$$$$

     RDKit          2D

 19 20  0  0  0  0  0  0  0  0999 V2000
   -0.5030    2.1838    0.0000 R   0  0  0  0  0  0  0  0  0  0  0  0
   -0.5024    1.1838    0.0000 N   0  0  0  0  0  0  0  0  0  0  0  0
    0.3640    0.6844    0.0000 R   0  0  0  0  0  0  0  0  0  0  0  0
   -1.3680    0.6830    0.0000 C   0  0  0  0  0  0  0  0  0  0  0  0
   -2.2344    1.1824    0.0000 C   0  0  0  0  0  0  0  0  0  0  0  0
   -2.2350    2.1824    0.0000 C   0  0  0  0  0  0  0  0  0  0  0  0
   -3.1014    2.6818    0.0000 R   0  0  0  0  0  0  0  0  0  0  0  0
   -1.3694    2.6830    0.0000 O   0  0  0  0  0  0  0  0  0  0  0  0
   -1.3672   -0.3170    0.0000 C   0  0  0  0  0  0  0  0  0  0  0  0
   -0.5008   -0.8162    0.0000 C   0  0  0  0  0  0  0  0  0  0  0  0
   -0.5000   -1.8162    0.0000 C   0  0  0  0  0  0  0  0  0  0  0  0
    0.3664   -2.3154    0.0000 C   0  0  0  0  0  0  0  0  0  0  0  0
    1.2320   -1.8150    0.0000 C   0  0  0  0  0  0  0  0  0  0  0  0
    2.0984   -2.3140    0.0000 C   0  0  0  0  0  0  0  0  0  0  0  0
    2.9642   -1.8136    0.0000 C   0  0  0  0  0  0  0  0  0  0  0  0
    2.9634   -0.8134    0.0000 C   0  0  0  0  0  0  0  0  0  0  0  0
    2.0968   -0.3142    0.0000 C   0  0  0  0  0  0  0  0  0  0  0  0
    1.2312   -0.8148    0.0000 C   0  0  0  0  0  0  0  0  0  0  0  0
    0.3648   -0.3156    0.0000 C   0  0  0  0  0  0  0  0  0  0  0  0
  1  2  1  0
  2  3  1  0
  2  4  1  0
  4  5  1  1
  5  6  1  0
  6  7  1  0
  6  8  2  0
  4  9  1  0
  9 10  1  0
 10 11  1  0
 11 12  2  0
 12 13  1  0
 13 14  2  0
 14 15  1  0
 15 16  2  0
 16 17  1  0
 17 18  2  0
 18 19  1  0
 19 10  2  0
 18 13  1  0
M  ISO  3   1   1   3   3   7   2
V    1 *
V    3 *
V    7 *
M  END
>  <symbol>  (847) 
b3h2Nal

>  <m_Rgroups>  (847) 
[H],[OH],[H],None,None,None

>  <m_abbr>  (847) 
b3h2Nal

>  <m_name>  (847) 
L-beta3-homo-2-naphthylalanine

>  <m_type>  (847) 
aa

>  <m_subtype>  (847) 
modified

>  <m_chem_types>  (847) 
1:backbone_n,2:backbone_c,3:backbone_n_mod

$$$$

     RDKit          2D

 14 13  0  0  0  0  0  0  0  0999 V2000
   -0.9424   -2.4658    0.0000 R   0  0  0  0  0  0  0  0  0  0  0  0
    0.5056   -2.0741    0.0000 N   0  0  0  0  0  0  0  0  0  0  0  0
    1.5688   -3.1322    0.0000 R   0  0  0  0  0  0  0  0  0  0  0  0
    0.8903   -0.6243    0.0000 C   0  0  0  0  0  0  0  0  0  0  0  0
    2.3383   -0.2325    0.0000 C   0  0  0  0  0  0  0  0  0  0  0  0
    2.7230    1.2173    0.0000 C   0  0  0  0  0  0  0  0  0  0  0  0
    4.1710    1.6090    0.0000 R   0  0  0  0  0  0  0  0  0  0  0  0
    1.6598    2.2754    0.0000 O   0  0  0  0  0  0  0  0  0  0  0  0
   -0.1729    0.4339    0.0000 C   0  0  0  0  0  0  0  0  0  0  0  0
   -1.6208    0.0421    0.0000 C   0  0  0  0  0  0  0  0  0  0  0  0
   -2.0056   -1.4077    0.0000 O   0  0  0  0  0  0  0  0  0  0  0  0
   -2.6840    1.1002    0.0000 N   0  0  0  0  0  0  0  0  0  0  0  0
   -4.1320    0.7085    0.0000 R   0  0  0  0  0  0  0  0  0  0  0  0
   -2.2993    2.5501    0.0000 R   0  0  0  0  0  0  0  0  0  0  0  0
  1  2  1  0
  2  3  1  0
  2  4  1  0
  4  5  1  1
  5  6  1  0
  6  7  1  0
  6  8  2  0
  4  9  1  0
  9 10  1  0
 10 11  2  0
 10 12  1  0
 12 13  1  0
 12 14  1  0
M  ISO  5   1   1   3   3   7   2  13   4  14   5
V    1 *
V    3 *
V    7 *
V   13 *
V   14 *
M  END
>  <symbol>  (848) 
b3hAsn

>  <m_Rgroups>  (848) 
[H],[OH],[H],[H],[H],None

>  <m_abbr>  (848) 
b3hAsn

>  <m_name>  (848) 
L-beta3-homoasparagine

>  <m_type>  (848) 
aa

>  <m_subtype>  (848) 
modified

>  <m_chem_types>  (848) 
1:backbone_n,2:backbone_c,3:backbone_n_mod

$$$$

     RDKit          2D

 15 14  0  0  0  0  0  0  0  0999 V2000
   -4.5037   -0.1907    0.0000 R   0  0  0  0  0  0  0  0  0  0  0  0
   -3.2062   -0.9434    0.0000 N   0  0  0  0  0  0  0  0  0  0  0  0
   -3.2093   -2.4434    0.0000 R   0  0  0  0  0  0  0  0  0  0  0  0
   -1.9057   -0.1961    0.0000 C   0  0  0  0  0  0  0  0  0  0  0  0
   -0.6082   -0.9488    0.0000 C   0  0  0  0  0  0  0  0  0  0  0  0
    0.6924   -0.2014    0.0000 C   0  0  0  0  0  0  0  0  0  0  0  0
    1.9899   -0.9541    0.0000 C   0  0  0  0  0  0  0  0  0  0  0  0
    1.9868   -2.4541    0.0000 O   0  0  0  0  0  0  0  0  0  0  0  0
    3.2905   -0.2068    0.0000 N   0  0  0  0  0  0  0  0  0  0  0  0
    4.5880   -0.9594    0.0000 R   0  0  0  0  0  0  0  0  0  0  0  0
    3.2936    1.2932    0.0000 R   0  0  0  0  0  0  0  0  0  0  0  0
   -1.9026    1.3039    0.0000 C   0  0  0  0  0  0  0  0  0  0  0  0
   -0.6020    2.0512    0.0000 C   0  0  0  0  0  0  0  0  0  0  0  0
   -0.5989    3.5512    0.0000 R   0  0  0  0  0  0  0  0  0  0  0  0
    0.6955    1.2986    0.0000 O   0  0  0  0  0  0  0  0  0  0  0  0
  1  2  1  0
  2  3  1  0
  2  4  1  0
  4  5  1  6
  5  6  1  0
  6  7  1  0
  7  8  2  0
  7  9  1  0
  9 10  1  0
  9 11  1  0
  4 12  1  0
 12 13  1  0
 13 14  1  0
 13 15  2  0
M  ISO  5   1   1   3   3  10   4  11   5  14   2
V    1 *
V    3 *
V   10 *
V   11 *
V   14 *
M  END
>  <symbol>  (849) 
b3hGln

>  <m_Rgroups>  (849) 
[H],[OH],[H],[H],[H],None

>  <m_abbr>  (849) 
b3hGln

>  <m_name>  (849) 
L-beta3-homoglutamine

>  <m_type>  (849) 
aa

>  <m_subtype>  (849) 
modified

>  <m_chem_types>  (849) 
1:backbone_n,2:backbone_c,3:backbone_n_mod

$$$$

     RDKit          2D

 15 15  0  0  0  0  0  0  0  0999 V2000
   -1.4734    1.2189    0.0000 R   0  0  0  0  0  0  0  0  0  0  0  0
   -0.6082    0.7179    0.0000 N   0  0  0  0  0  0  0  0  0  0  0  0
    0.2584    1.2169    0.0000 R   0  0  0  0  0  0  0  0  0  0  0  0
   -0.6094   -0.2821    0.0000 C   0  0  0  0  0  0  0  0  0  0  0  0
   -1.4760   -0.7811    0.0000 C   0  0  0  0  0  0  0  0  0  0  0  0
   -2.3412   -0.2801    0.0000 C   0  0  0  0  0  0  0  0  0  0  0  0
   -3.2078   -0.7791    0.0000 R   0  0  0  0  0  0  0  0  0  0  0  0
   -2.3400    0.7199    0.0000 O   0  0  0  0  0  0  0  0  0  0  0  0
    0.2560   -0.7831    0.0000 C   0  0  0  0  0  0  0  0  0  0  0  0
    1.1226   -0.2843    0.0000 C   0  0  0  0  0  0  0  0  0  0  0  0
    1.2282    0.7105    0.0000 C   0  0  0  0  0  0  0  0  0  0  0  0
    2.2064    0.9169    0.0000 N   0  0  0  0  0  0  0  0  0  0  0  0
    2.7058    0.0505    0.0000 C   0  0  0  0  0  0  0  0  0  0  0  0
    2.0356   -0.6919    0.0000 N   0  0  0  0  0  0  0  0  0  0  0  0
    2.2424   -1.6703    0.0000 R   0  0  0  0  0  0  0  0  0  0  0  0
  1  2  1  0
  2  3  1  0
  2  4  1  0
  4  5  1  1
  5  6  1  0
  6  7  1  0
  6  8  2  0
  4  9  1  0
  9 10  1  0
 10 11  2  0
 11 12  1  0
 12 13  2  0
 13 14  1  0
 14 15  1  0
 14 10  1  0
M  ISO  4   1   1   3   3   7   2  15   4
V    1 *
V    3 *
V    7 *
V   15 *
M  END
>  <symbol>  (850) 
b3hHis

>  <m_Rgroups>  (850) 
[H],[OH],[H],[H],None,None

>  <m_abbr>  (850) 
b3hHis

>  <m_name>  (850) 
L-beta3-homohistidine

>  <m_type>  (850) 
aa

>  <m_subtype>  (850) 
modified

>  <m_chem_types>  (850) 
1:backbone_n,2:backbone_c,3:backbone_n_mod,4:aromatic_nh

$$$$

     RDKit          2D

 19 20  0  0  0  0  0  0  0  0999 V2000
    3.0624    0.2239    0.0000 R   0  0  0  0  0  0  0  0  0  0  0  0
    2.1952    0.7219    0.0000 N   0  0  0  0  0  0  0  0  0  0  0  0
    2.1928    1.7221    0.0000 R   0  0  0  0  0  0  0  0  0  0  0  0
    1.3304    0.2201    0.0000 C   0  0  0  0  0  0  0  0  0  0  0  0
    1.3326   -0.7799    0.0000 C   0  0  0  0  0  0  0  0  0  0  0  0
    2.1998   -1.2777    0.0000 C   0  0  0  0  0  0  0  0  0  0  0  0
    2.2022   -2.2777    0.0000 R   0  0  0  0  0  0  0  0  0  0  0  0
    3.0646   -0.7759    0.0000 O   0  0  0  0  0  0  0  0  0  0  0  0
    0.4630    0.7181    0.0000 C   0  0  0  0  0  0  0  0  0  0  0  0
   -0.4016    0.2161    0.0000 C   0  0  0  0  0  0  0  0  0  0  0  0
   -0.5042   -0.7785    0.0000 C   0  0  0  0  0  0  0  0  0  0  0  0
   -1.4818   -0.9889    0.0000 N   0  0  0  0  0  0  0  0  0  0  0  0
   -1.8864   -1.9031    0.0000 R   0  0  0  0  0  0  0  0  0  0  0  0
   -1.9836   -0.1237    0.0000 C   0  0  0  0  0  0  0  0  0  0  0  0
   -2.9622    0.0819    0.0000 C   0  0  0  0  0  0  0  0  0  0  0  0
   -3.2734    1.0323    0.0000 C   0  0  0  0  0  0  0  0  0  0  0  0
   -2.6060    1.7769    0.0000 C   0  0  0  0  0  0  0  0  0  0  0  0
   -1.6274    1.5711    0.0000 C   0  0  0  0  0  0  0  0  0  0  0  0
   -1.3162    0.6209    0.0000 C   0  0  0  0  0  0  0  0  0  0  0  0
  1  2  1  0
  2  3  1  0
  2  4  1  0
  4  5  1  6
  5  6  1  0
  6  7  1  0
  6  8  2  0
  4  9  1  0
  9 10  1  0
 10 11  2  0
 11 12  1  0
 12 13  1  0
 12 14  1  0
 14 15  2  0
 15 16  1  0
 16 17  2  0
 17 18  1  0
 18 19  2  0
 19 10  1  0
 19 14  1  0
M  ISO  4   1   1   3   3   7   2  13   4
V    1 *
V    3 *
V    7 *
V   13 *
M  END
>  <symbol>  (851) 
b3hTrp

>  <m_Rgroups>  (851) 
[H],[OH],[H],[H],None,None

>  <m_abbr>  (851) 
b3hTrp

>  <m_name>  (851) 
L-beta3-homotryptophan

>  <m_type>  (851) 
aa

>  <m_subtype>  (851) 
modified

>  <m_chem_types>  (851) 
1:backbone_n,2:backbone_c,3:backbone_n_mod,4:aromatic_nh

$$$$

     RDKit          2D

 12 11  0  0  0  0  0  0  0  0999 V2000
   -0.7242    1.2485    0.0000 R   0  0  0  0  0  0  0  0  0  0  0  0
    0.1428    0.7503    0.0000 N   0  0  0  0  0  0  0  0  0  0  0  0
    1.0078    1.2519    0.0000 R   0  0  0  0  0  0  0  0  0  0  0  0
    0.1448   -0.2497    0.0000 C   0  0  0  0  0  0  0  0  0  0  0  0
   -0.7202   -0.7515    0.0000 C   0  0  0  0  0  0  0  0  0  0  0  0
   -1.5872   -0.2531    0.0000 C   0  0  0  0  0  0  0  0  0  0  0  0
   -2.4522   -0.7549    0.0000 C   0  0  0  0  0  0  0  0  0  0  0  0
   -3.3192   -0.2567    0.0000 C   0  0  0  0  0  0  0  0  0  0  0  0
    1.0118   -0.7481    0.0000 C   0  0  0  0  0  0  0  0  0  0  0  0
    1.8768   -0.2463    0.0000 C   0  0  0  0  0  0  0  0  0  0  0  0
    2.7440   -0.7445    0.0000 R   0  0  0  0  0  0  0  0  0  0  0  0
    1.8748    0.7537    0.0000 O   0  0  0  0  0  0  0  0  0  0  0  0
  1  2  1  0
  2  3  1  0
  2  4  1  0
  4  5  1  1
  5  6  1  0
  6  7  1  0
  7  8  1  0
  4  9  1  0
  9 10  1  0
 10 11  1  0
 10 12  2  0
M  ISO  3   1   1   3   3  11   2
V    1 *
V    3 *
V   11 *
M  END
>  <symbol>  (852) 
D_b3hNle

>  <m_Rgroups>  (852) 
[H],[OH],[H],None,None,None

>  <m_abbr>  (852) 
D_b3hNle

>  <m_name>  (852) 
D-beta3-homonorleucine

>  <m_type>  (852) 
aa

>  <m_subtype>  (852) 
modified

>  <m_chem_types>  (852) 
1:backbone_n,2:backbone_c,3:backbone_n_mod

$$$$

     RDKit          2D

 17 17  0  0  0  0  0  0  0  0999 V2000
   -2.7848    1.8016    0.0000 R   0  0  0  0  0  0  0  0  0  0  0  0
   -1.5847    0.9017    0.0000 N   0  0  0  0  0  0  0  0  0  0  0  0
   -0.2054    1.4911    0.0000 R   0  0  0  0  0  0  0  0  0  0  0  0
   -1.7640   -0.5875    0.0000 C   0  0  0  0  0  0  0  0  0  0  0  0
   -3.1433   -1.1769    0.0000 C   0  0  0  0  0  0  0  0  0  0  0  0
   -4.3434   -0.2771    0.0000 C   0  0  0  0  0  0  0  0  0  0  0  0
   -5.7228   -0.8665    0.0000 R   0  0  0  0  0  0  0  0  0  0  0  0
   -4.1642    1.2122    0.0000 O   0  0  0  0  0  0  0  0  0  0  0  0
   -0.5639   -1.4874    0.0000 C   0  0  0  0  0  0  0  0  0  0  0  0
    0.8155   -0.8980    0.0000 C   0  0  0  0  0  0  0  0  0  0  0  0
    0.9948    0.5912    0.0000 C   0  0  0  0  0  0  0  0  0  0  0  0
    2.3741    1.1806    0.0000 C   0  0  0  0  0  0  0  0  0  0  0  0
    3.5742    0.2808    0.0000 C   0  0  0  0  0  0  0  0  0  0  0  0
    4.9536    0.8702    0.0000 O   0  0  0  0  0  0  0  0  0  0  0  0
    6.1537   -0.0297    0.0000 R   0  0  0  0  0  0  0  0  0  0  0  0
    3.3950   -1.2085    0.0000 C   0  0  0  0  0  0  0  0  0  0  0  0
    2.0156   -1.7979    0.0000 C   0  0  0  0  0  0  0  0  0  0  0  0
  1  2  1  0
  2  3  1  0
  2  4  1  0
  4  5  1  6
  5  6  1  0
  6  7  1  0
  6  8  2  0
  4  9  1  0
  9 10  1  0
 10 11  1  0
 11 12  2  0
 12 13  1  0
 13 14  1  0
 14 15  1  0
 13 16  2  0
 16 17  1  0
 17 10  2  0
M  ISO  4   1   1   3   3   7   2  15   4
V    1 *
V    3 *
V    7 *
V   15 *
M  END
>  <symbol>  (853) 
D_b3hTyr

>  <m_Rgroups>  (853) 
[H],[OH],[H],[H],None,None

>  <m_abbr>  (853) 
D_b3hTyr

>  <m_name>  (853) 
D-beta3-homotyrosine

>  <m_type>  (853) 
aa

>  <m_subtype>  (853) 
modified

>  <m_chem_types>  (853) 
1:backbone_n,2:backbone_c,3:backbone_n_mod

$$$$

     RDKit          2D

 15 14  0  0  0  0  0  0  0  0999 V2000
   -4.8121   -0.6112    0.0000 R   0  0  0  0  0  0  0  0  0  0  0  0
   -3.4412   -1.2199    0.0000 N   0  0  0  0  0  0  0  0  0  0  0  0
   -3.2829   -2.7115    0.0000 R   0  0  0  0  0  0  0  0  0  0  0  0
   -2.2285   -0.3370    0.0000 C   0  0  0  0  0  0  0  0  0  0  0  0
   -0.8576   -0.9458    0.0000 C   0  0  0  0  0  0  0  0  0  0  0  0
    0.3550   -0.0629    0.0000 C   0  0  0  0  0  0  0  0  0  0  0  0
    1.7260   -0.6716    0.0000 C   0  0  0  0  0  0  0  0  0  0  0  0
    2.9386    0.2113    0.0000 C   0  0  0  0  0  0  0  0  0  0  0  0
    4.3095   -0.3975    0.0000 N   0  0  0  0  0  0  0  0  0  0  0  0
    5.5222    0.4854    0.0000 R   0  0  0  0  0  0  0  0  0  0  0  0
    4.4678   -1.8891    0.0000 R   0  0  0  0  0  0  0  0  0  0  0  0
   -2.3868    1.1546    0.0000 C   0  0  0  0  0  0  0  0  0  0  0  0
   -1.1742    2.0375    0.0000 C   0  0  0  0  0  0  0  0  0  0  0  0
   -1.3324    3.5291    0.0000 R   0  0  0  0  0  0  0  0  0  0  0  0
    0.1968    1.4287    0.0000 O   0  0  0  0  0  0  0  0  0  0  0  0
  1  2  1  0
  2  3  1  0
  2  4  1  0
  4  5  1  1
  5  6  1  0
  6  7  1  0
  7  8  1  0
  8  9  1  0
  9 10  1  0
  9 11  1  0
  4 12  1  0
 12 13  1  0
 13 14  1  0
 13 15  2  0
M  ISO  5   1   1   3   3  10   4  11   5  14   2
V    1 *
V    3 *
V   10 *
V   11 *
V   14 *
M  END
>  <symbol>  (854) 
D_b3hLys

>  <m_Rgroups>  (854) 
[H],[OH],[H],[H],[H],None

>  <m_abbr>  (854) 
D_b3hLys

>  <m_name>  (854) 
D-beta3-homolysine

>  <m_type>  (854) 
aa

>  <m_subtype>  (854) 
modified

>  <m_chem_types>  (854) 
1:backbone_n,2:backbone_c,3:backbone_n_mod,4:amine_primary

$$$$

     RDKit          2D

 12 11  0  0  0  0  0  0  0  0999 V2000
   -2.3098   -1.2902    0.0000 R   0  0  0  0  0  0  0  0  0  0  0  0
   -0.8410   -1.5946    0.0000 N   0  0  0  0  0  0  0  0  0  0  0  0
   -0.3702   -3.0188    0.0000 R   0  0  0  0  0  0  0  0  0  0  0  0
    0.1569   -0.4747    0.0000 C   0  0  0  0  0  0  0  0  0  0  0  0
    1.6257   -0.7791    0.0000 C   0  0  0  0  0  0  0  0  0  0  0  0
    2.6237    0.3408    0.0000 C   0  0  0  0  0  0  0  0  0  0  0  0
    4.0925    0.0364    0.0000 R   0  0  0  0  0  0  0  0  0  0  0  0
    2.1529    1.7650    0.0000 O   0  0  0  0  0  0  0  0  0  0  0  0
   -0.3139    0.9495    0.0000 C   0  0  0  0  0  0  0  0  0  0  0  0
   -1.7827    1.2538    0.0000 C   0  0  0  0  0  0  0  0  0  0  0  0
   -2.7807    0.1340    0.0000 R   0  0  0  0  0  0  0  0  0  0  0  0
   -2.2535    2.6780    0.0000 O   0  0  0  0  0  0  0  0  0  0  0  0
  1  2  1  0
  2  3  1  0
  2  4  1  0
  4  5  1  0
  5  6  1  0
  6  7  1  0
  6  8  2  0
  4  9  1  0
  9 10  1  0
 10 11  1  0
 10 12  2  0
M  ISO  4   1   1   3   3   7   2  11   4
V    1 *
V    3 *
V    7 *
V   11 *
M  END
>  <symbol>  (855) 
D_b3hAsp

>  <m_Rgroups>  (855) 
[H], [OH], [H], [OH]

>  <m_abbr>  (855) 
D_b3hAsp

>  <m_name>  (855) 
D-beta3-homoaspartate

>  <m_type>  (855) 
aa

>  <m_subtype>  (855) 
modified

>  <m_chem_types>  (855) 
1:backbone_n,2:backbone_c,3:backbone_n_mod,4:carboxyl

$$$$

     RDKit          2D

 13 12  0  0  0  0  0  0  0  0999 V2000
   -3.8971   -0.1731    0.0000 R   0  0  0  0  0  0  0  0  0  0  0  0
   -2.5981   -0.9231    0.0000 N   0  0  0  0  0  0  0  0  0  0  0  0
   -2.5981   -2.4231    0.0000 R   0  0  0  0  0  0  0  0  0  0  0  0
   -1.2990   -0.1731    0.0000 C   0  0  0  0  0  0  0  0  0  0  0  0
   -0.0000   -0.9231    0.0000 C   0  0  0  0  0  0  0  0  0  0  0  0
    1.2990   -0.1731    0.0000 C   0  0  0  0  0  0  0  0  0  0  0  0
    2.5981   -0.9231    0.0000 C   0  0  0  0  0  0  0  0  0  0  0  0
    3.8971   -0.1731    0.0000 R   0  0  0  0  0  0  0  0  0  0  0  0
    2.5981   -2.4231    0.0000 O   0  0  0  0  0  0  0  0  0  0  0  0
   -1.2990    1.3269    0.0000 C   0  0  0  0  0  0  0  0  0  0  0  0
   -0.0000    2.0769    0.0000 C   0  0  0  0  0  0  0  0  0  0  0  0
    0.0000    3.5769    0.0000 R   0  0  0  0  0  0  0  0  0  0  0  0
    1.2990    1.3269    0.0000 O   0  0  0  0  0  0  0  0  0  0  0  0
  1  2  1  0
  2  3  1  0
  2  4  1  0
  4  5  1  1
  5  6  1  0
  6  7  1  0
  7  8  1  0
  7  9  2  0
  4 10  1  0
 10 11  1  0
 11 12  1  0
 11 13  2  0
M  ISO  4   1   1   3   3   8   4  12   2
V    1 *
V    3 *
V    8 *
V   12 *
M  END
>  <symbol>  (856) 
D_b3hGlu

>  <m_Rgroups>  (856) 
[H],[OH],[H],[OH],None,None

>  <m_abbr>  (856) 
D_b3hGlu

>  <m_name>  (856) 
D-beta3-homoglutamate

>  <m_type>  (856) 
aa

>  <m_subtype>  (856) 
modified

>  <m_chem_types>  (856) 
1:backbone_n,2:backbone_c,3:backbone_n_mod,4:carboxyl

$$$$

     RDKit          2D

 16 16  0  0  0  0  0  0  0  0999 V2000
   -1.7312    1.0014    0.0000 R   0  0  0  0  0  0  0  0  0  0  0  0
   -0.8656    0.5006    0.0000 N   0  0  0  0  0  0  0  0  0  0  0  0
    0.0008    1.0000    0.0000 R   0  0  0  0  0  0  0  0  0  0  0  0
   -0.8664   -0.4994    0.0000 C   0  0  0  0  0  0  0  0  0  0  0  0
   -1.7328   -0.9986    0.0000 C   0  0  0  0  0  0  0  0  0  0  0  0
   -2.5984   -0.4980    0.0000 C   0  0  0  0  0  0  0  0  0  0  0  0
   -3.4648   -0.9972    0.0000 R   0  0  0  0  0  0  0  0  0  0  0  0
   -2.5976    0.5020    0.0000 O   0  0  0  0  0  0  0  0  0  0  0  0
   -0.0008   -1.0000    0.0000 C   0  0  0  0  0  0  0  0  0  0  0  0
    0.8656   -0.5008    0.0000 C   0  0  0  0  0  0  0  0  0  0  0  0
    0.8664    0.4994    0.0000 C   0  0  0  0  0  0  0  0  0  0  0  0
    1.7328    0.9986    0.0000 C   0  0  0  0  0  0  0  0  0  0  0  0
    2.5984    0.4980    0.0000 C   0  0  0  0  0  0  0  0  0  0  0  0
    3.4648    0.9972    0.0000 Br  0  0  0  0  0  0  0  0  0  0  0  0
    2.5976   -0.5022    0.0000 C   0  0  0  0  0  0  0  0  0  0  0  0
    1.7312   -1.0012    0.0000 C   0  0  0  0  0  0  0  0  0  0  0  0
  1  2  1  0
  2  3  1  0
  2  4  1  0
  4  5  1  6
  5  6  1  0
  6  7  1  0
  6  8  2  0
  4  9  1  0
  9 10  1  0
 10 11  1  0
 11 12  2  0
 12 13  1  0
 13 14  1  0
 13 15  2  0
 15 16  1  0
 16 10  2  0
M  ISO  3   1   1   3   3   7   2
V    1 *
V    3 *
V    7 *
M  END
>  <symbol>  (857) 
D_b3hPhe_4Br

>  <m_Rgroups>  (857) 
[H],[OH],[H],None,None,None

>  <m_abbr>  (857) 
D_b3hPhe_4Br

>  <m_name>  (857) 
D-beta3-homo-4-bromophenylalanine

>  <m_type>  (857) 
aa

>  <m_subtype>  (857) 
modified

>  <m_chem_types>  (857) 
1:backbone_n,2:backbone_c,3:backbone_n_mod

$$$$

     RDKit          2D

 20 21  0  0  0  0  0  0  0  0999 V2000
   -2.4124    1.3397    0.0000 R   0  0  0  0  0  0  0  0  0  0  0  0
   -1.5452    0.8417    0.0000 N   0  0  0  0  0  0  0  0  0  0  0  0
   -0.6806    1.3437    0.0000 R   0  0  0  0  0  0  0  0  0  0  0  0
   -1.5428   -0.1581    0.0000 C   0  0  0  0  0  0  0  0  0  0  0  0
   -2.4078   -0.6601    0.0000 C   0  0  0  0  0  0  0  0  0  0  0  0
   -3.2750   -0.1621    0.0000 C   0  0  0  0  0  0  0  0  0  0  0  0
   -4.1398   -0.6639    0.0000 R   0  0  0  0  0  0  0  0  0  0  0  0
   -3.2774    0.8379    0.0000 O   0  0  0  0  0  0  0  0  0  0  0  0
   -0.6756   -0.6563    0.0000 C   0  0  0  0  0  0  0  0  0  0  0  0
    0.1890   -0.1543    0.0000 C   0  0  0  0  0  0  0  0  0  0  0  0
    0.2916    0.8403    0.0000 C   0  0  0  0  0  0  0  0  0  0  0  0
    1.2692    1.0507    0.0000 N   0  0  0  0  0  0  0  0  0  0  0  0
    1.6738    1.9649    0.0000 R   0  0  0  0  0  0  0  0  0  0  0  0
    1.7710    0.1857    0.0000 C   0  0  0  0  0  0  0  0  0  0  0  0
    2.7496   -0.0201    0.0000 C   0  0  0  0  0  0  0  0  0  0  0  0
    3.0608   -0.9703    0.0000 C   0  0  0  0  0  0  0  0  0  0  0  0
    4.0394   -1.1761    0.0000 F   0  0  0  0  0  0  0  0  0  0  0  0
    2.3934   -1.7151    0.0000 C   0  0  0  0  0  0  0  0  0  0  0  0
    1.4148   -1.5093    0.0000 C   0  0  0  0  0  0  0  0  0  0  0  0
    1.1036   -0.5589    0.0000 C   0  0  0  0  0  0  0  0  0  0  0  0
  1  2  1  0
  2  3  1  0
  2  4  1  0
  4  5  1  6
  5  6  1  0
  6  7  1  0
  6  8  2  0
  4  9  1  0
  9 10  1  0
 10 11  2  0
 11 12  1  0
 12 13  1  0
 12 14  1  0
 14 15  1  0
 15 16  2  0
 16 17  1  0
 16 18  1  0
 18 19  2  0
 19 20  1  0
 20 10  1  0
 20 14  2  0
M  ISO  4   1   1   3   3   7   2  13   4
V    1 *
V    3 *
V    7 *
V   13 *
M  END
>  <symbol>  (858) 
D_b3hTrp_5F

>  <m_Rgroups>  (858) 
[H],[OH],[H],[H],None,None

>  <m_abbr>  (858) 
D_b3hTrp_5F

>  <m_name>  (858) 
D-beta3-homo-5-fluorotryptophan

>  <m_type>  (858) 
aa

>  <m_subtype>  (858) 
modified

>  <m_chem_types>  (858) 
1:backbone_n,2:backbone_c,3:backbone_n_mod,4:aromatic_nh

$$$$

     RDKit          2D

 12 11  0  0  0  0  0  0  0  0999 V2000
   -0.7242    1.2485    0.0000 R   0  0  0  0  0  0  0  0  0  0  0  0
    0.1428    0.7503    0.0000 N   0  0  0  0  0  0  0  0  0  0  0  0
    1.0078    1.2519    0.0000 R   0  0  0  0  0  0  0  0  0  0  0  0
    0.1448   -0.2497    0.0000 C   0  0  0  0  0  0  0  0  0  0  0  0
    1.0118   -0.7481    0.0000 C   0  0  0  0  0  0  0  0  0  0  0  0
    1.8768   -0.2463    0.0000 C   0  0  0  0  0  0  0  0  0  0  0  0
    2.7440   -0.7445    0.0000 R   0  0  0  0  0  0  0  0  0  0  0  0
    1.8748    0.7537    0.0000 O   0  0  0  0  0  0  0  0  0  0  0  0
   -0.7202   -0.7515    0.0000 C   0  0  0  0  0  0  0  0  0  0  0  0
   -1.5872   -0.2531    0.0000 C   0  0  0  0  0  0  0  0  0  0  0  0
   -2.4522   -0.7549    0.0000 S   0  0  0  0  0  0  0  0  0  0  0  0
   -3.3192   -0.2567    0.0000 C   0  0  0  0  0  0  0  0  0  0  0  0
  1  2  1  0
  2  3  1  0
  2  4  1  0
  4  5  1  1
  5  6  1  0
  6  7  1  0
  6  8  2  0
  4  9  1  0
  9 10  1  0
 10 11  1  0
 11 12  1  0
M  ISO  3   1   1   3   3   7   2
V    1 *
V    3 *
V    7 *
M  END
>  <symbol>  (859) 
D_b3hMet

>  <m_Rgroups>  (859) 
[H],[OH],[H],None,None,None

>  <m_abbr>  (859) 
D_b3hMet

>  <m_name>  (859) 
D-beta3-homomethionine

>  <m_type>  (859) 
aa

>  <m_subtype>  (859) 
modified

>  <m_chem_types>  (859) 
1:backbone_n,2:backbone_c,3:backbone_n_mod

$$$$

     RDKit          2D

 11 10  0  0  0  0  0  0  0  0999 V2000
   -1.0260    1.2251    0.0000 R   0  0  0  0  0  0  0  0  0  0  0  0
   -0.1590    0.7269    0.0000 N   0  0  0  0  0  0  0  0  0  0  0  0
    0.7060    1.2287    0.0000 R   0  0  0  0  0  0  0  0  0  0  0  0
   -0.1570   -0.2731    0.0000 C   0  0  0  0  0  0  0  0  0  0  0  0
    0.7102   -0.7713    0.0000 C   0  0  0  0  0  0  0  0  0  0  0  0
    1.5752   -0.2695    0.0000 C   0  0  0  0  0  0  0  0  0  0  0  0
    2.4422   -0.7679    0.0000 R   0  0  0  0  0  0  0  0  0  0  0  0
    1.5732    0.7303    0.0000 O   0  0  0  0  0  0  0  0  0  0  0  0
   -1.0220   -0.7747    0.0000 C   0  0  0  0  0  0  0  0  0  0  0  0
   -1.8890   -0.2765    0.0000 C   0  0  0  0  0  0  0  0  0  0  0  0
   -2.7540   -0.7783    0.0000 C   0  0  0  0  0  0  0  0  0  0  0  0
  1  2  1  0
  2  3  1  0
  2  4  1  0
  4  5  1  1
  5  6  1  0
  6  7  1  0
  6  8  2  0
  4  9  1  0
  9 10  1  0
 10 11  1  0
M  ISO  3   1   1   3   3   7   2
V    1 *
V    3 *
V    7 *
M  END
>  <symbol>  (860) 
D_b3hNva

>  <m_Rgroups>  (860) 
[H],[OH],[H],None,None,None

>  <m_abbr>  (860) 
D_b3hNva

>  <m_name>  (860) 
D-beta3-homonorvaline

>  <m_type>  (860) 
aa

>  <m_subtype>  (860) 
modified

>  <m_chem_types>  (860) 
1:backbone_n,2:backbone_c,3:backbone_n_mod

$$$$

     RDKit          2D

 15 15  0  0  0  0  0  0  0  0999 V2000
   -1.5002    1.0679    0.0000 R   0  0  0  0  0  0  0  0  0  0  0  0
   -0.6346    0.5673    0.0000 N   0  0  0  0  0  0  0  0  0  0  0  0
    0.2318    1.0665    0.0000 R   0  0  0  0  0  0  0  0  0  0  0  0
   -0.6354   -0.4327    0.0000 C   0  0  0  0  0  0  0  0  0  0  0  0
   -1.5018   -0.9321    0.0000 C   0  0  0  0  0  0  0  0  0  0  0  0
   -2.3674   -0.4315    0.0000 C   0  0  0  0  0  0  0  0  0  0  0  0
   -3.2338   -0.9307    0.0000 R   0  0  0  0  0  0  0  0  0  0  0  0
   -2.3666    0.5685    0.0000 O   0  0  0  0  0  0  0  0  0  0  0  0
    0.2302   -0.9335    0.0000 C   0  0  0  0  0  0  0  0  0  0  0  0
    1.0964   -0.4343    0.0000 C   0  0  0  0  0  0  0  0  0  0  0  0
    1.0972    0.5659    0.0000 C   0  0  0  0  0  0  0  0  0  0  0  0
    1.9638    1.0651    0.0000 C   0  0  0  0  0  0  0  0  0  0  0  0
    2.8294    0.5645    0.0000 C   0  0  0  0  0  0  0  0  0  0  0  0
    2.8286   -0.4355    0.0000 C   0  0  0  0  0  0  0  0  0  0  0  0
    1.9622   -0.9347    0.0000 C   0  0  0  0  0  0  0  0  0  0  0  0
  1  2  1  0
  2  3  1  0
  2  4  1  0
  4  5  1  6
  5  6  1  0
  6  7  1  0
  6  8  2  0
  4  9  1  0
  9 10  1  0
 10 11  1  0
 11 12  1  0
 12 13  1  0
 13 14  1  0
 14 15  1  0
 15 10  1  0
M  ISO  3   1   1   3   3   7   2
V    1 *
V    3 *
V    7 *
M  END
>  <symbol>  (861) 
D_b3hCha

>  <m_Rgroups>  (861) 
[H],[OH],[H],None,None,None

>  <m_abbr>  (861) 
D_b3hCha

>  <m_name>  (861) 
D-beta3-homocyclohexylalanine

>  <m_type>  (861) 
aa

>  <m_subtype>  (861) 
modified

>  <m_chem_types>  (861) 
1:backbone_n,2:backbone_c,3:backbone_n_mod

$$$$

     RDKit          2D

 14 14  0  0  0  0  0  0  0  0999 V2000
   -1.1147    1.6420    0.0000 R   0  0  0  0  0  0  0  0  0  0  0  0
   -0.2483    1.1426    0.0000 N   0  0  0  0  0  0  0  0  0  0  0  0
    0.6173    1.6434    0.0000 R   0  0  0  0  0  0  0  0  0  0  0  0
   -0.2475    0.1426    0.0000 C   0  0  0  0  0  0  0  0  0  0  0  0
   -1.1131   -0.3580    0.0000 C   0  0  0  0  0  0  0  0  0  0  0  0
   -1.9795    0.1414    0.0000 C   0  0  0  0  0  0  0  0  0  0  0  0
   -2.8451   -0.3594    0.0000 R   0  0  0  0  0  0  0  0  0  0  0  0
   -1.9803    1.1414    0.0000 O   0  0  0  0  0  0  0  0  0  0  0  0
    0.6187   -0.3566    0.0000 C   0  0  0  0  0  0  0  0  0  0  0  0
    0.6195   -1.3566    0.0000 C   0  0  0  0  0  0  0  0  0  0  0  0
    1.4861   -1.8558    0.0000 C   0  0  0  0  0  0  0  0  0  0  0  0
    2.3517   -1.3552    0.0000 C   0  0  0  0  0  0  0  0  0  0  0  0
    2.3509   -0.3552    0.0000 C   0  0  0  0  0  0  0  0  0  0  0  0
    1.4845    0.1440    0.0000 C   0  0  0  0  0  0  0  0  0  0  0  0
  1  2  1  0
  2  3  1  0
  2  4  1  0
  4  5  1  6
  5  6  1  0
  6  7  1  0
  6  8  2  0
  4  9  1  0
  9 10  1  0
 10 11  1  0
 11 12  1  0
 12 13  1  0
 13 14  1  0
 14  9  1  0
M  ISO  3   1   1   3   3   7   2
V    1 *
V    3 *
V    7 *
M  END
>  <symbol>  (862) 
D_b3hChg

>  <m_Rgroups>  (862) 
[H],[OH],[H],None,None,None

>  <m_abbr>  (862) 
D_b3hChg

>  <m_name>  (862) 
D-beta3-homocyclohexylglycine

>  <m_type>  (862) 
aa

>  <m_subtype>  (862) 
modified

>  <m_chem_types>  (862) 
1:backbone_n,2:backbone_c,3:backbone_n_mod

$$$$

     RDKit          2D

 19 20  0  0  0  0  0  0  0  0999 V2000
   -1.4606    2.6305    0.0000 R   0  0  0  0  0  0  0  0  0  0  0  0
   -0.5942    2.1311    0.0000 N   0  0  0  0  0  0  0  0  0  0  0  0
    0.2714    2.6319    0.0000 R   0  0  0  0  0  0  0  0  0  0  0  0
   -0.5934    1.1311    0.0000 C   0  0  0  0  0  0  0  0  0  0  0  0
   -1.4590    0.6305    0.0000 C   0  0  0  0  0  0  0  0  0  0  0  0
   -2.3254    1.1297    0.0000 C   0  0  0  0  0  0  0  0  0  0  0  0
   -3.1910    0.6291    0.0000 R   0  0  0  0  0  0  0  0  0  0  0  0
   -2.3262    2.1297    0.0000 O   0  0  0  0  0  0  0  0  0  0  0  0
    0.2730    0.6319    0.0000 C   0  0  0  0  0  0  0  0  0  0  0  0
    0.2738   -0.3683    0.0000 C   0  0  0  0  0  0  0  0  0  0  0  0
   -0.5920   -0.8689    0.0000 C   0  0  0  0  0  0  0  0  0  0  0  0
   -0.5912   -1.8689    0.0000 C   0  0  0  0  0  0  0  0  0  0  0  0
    0.2754   -2.3681    0.0000 C   0  0  0  0  0  0  0  0  0  0  0  0
    1.1410   -1.8675    0.0000 C   0  0  0  0  0  0  0  0  0  0  0  0
    2.0074   -2.3667    0.0000 C   0  0  0  0  0  0  0  0  0  0  0  0
    2.8730   -1.8661    0.0000 C   0  0  0  0  0  0  0  0  0  0  0  0
    2.8722   -0.8661    0.0000 C   0  0  0  0  0  0  0  0  0  0  0  0
    2.0058   -0.3669    0.0000 C   0  0  0  0  0  0  0  0  0  0  0  0
    1.1402   -0.8675    0.0000 C   0  0  0  0  0  0  0  0  0  0  0  0
  1  2  1  0
  2  3  1  0
  2  4  1  0
  4  5  1  6
  5  6  1  0
  6  7  1  0
  6  8  2  0
  4  9  1  0
  9 10  1  0
 10 11  2  0
 11 12  1  0
 12 13  2  0
 13 14  1  0
 14 15  2  0
 15 16  1  0
 16 17  2  0
 17 18  1  0
 18 19  2  0
 19 10  1  0
 19 14  1  0
M  ISO  3   1   1   3   3   7   2
V    1 *
V    3 *
V    7 *
M  END
>  <symbol>  (863) 
D_b3h1Nal

>  <m_Rgroups>  (863) 
[H],[OH],[H],None,None,None

>  <m_abbr>  (863) 
D_b3h1Nal

>  <m_name>  (863) 
D-beta3-homo-1-naphthylalanine

>  <m_type>  (863) 
aa

>  <m_subtype>  (863) 
modified

>  <m_chem_types>  (863) 
1:backbone_n,2:backbone_c,3:backbone_n_mod

$$$$

     RDKit          2D

 19 20  0  0  0  0  0  0  0  0999 V2000
   -0.5030    2.1838    0.0000 R   0  0  0  0  0  0  0  0  0  0  0  0
   -0.5024    1.1838    0.0000 N   0  0  0  0  0  0  0  0  0  0  0  0
    0.3640    0.6844    0.0000 R   0  0  0  0  0  0  0  0  0  0  0  0
   -1.3680    0.6830    0.0000 C   0  0  0  0  0  0  0  0  0  0  0  0
   -2.2344    1.1824    0.0000 C   0  0  0  0  0  0  0  0  0  0  0  0
   -2.2350    2.1824    0.0000 C   0  0  0  0  0  0  0  0  0  0  0  0
   -3.1014    2.6818    0.0000 R   0  0  0  0  0  0  0  0  0  0  0  0
   -1.3694    2.6830    0.0000 O   0  0  0  0  0  0  0  0  0  0  0  0
   -1.3672   -0.3170    0.0000 C   0  0  0  0  0  0  0  0  0  0  0  0
   -0.5008   -0.8162    0.0000 C   0  0  0  0  0  0  0  0  0  0  0  0
   -0.5000   -1.8162    0.0000 C   0  0  0  0  0  0  0  0  0  0  0  0
    0.3664   -2.3154    0.0000 C   0  0  0  0  0  0  0  0  0  0  0  0
    1.2320   -1.8150    0.0000 C   0  0  0  0  0  0  0  0  0  0  0  0
    2.0984   -2.3140    0.0000 C   0  0  0  0  0  0  0  0  0  0  0  0
    2.9642   -1.8136    0.0000 C   0  0  0  0  0  0  0  0  0  0  0  0
    2.9634   -0.8134    0.0000 C   0  0  0  0  0  0  0  0  0  0  0  0
    2.0968   -0.3142    0.0000 C   0  0  0  0  0  0  0  0  0  0  0  0
    1.2312   -0.8148    0.0000 C   0  0  0  0  0  0  0  0  0  0  0  0
    0.3648   -0.3156    0.0000 C   0  0  0  0  0  0  0  0  0  0  0  0
  1  2  1  0
  2  3  1  0
  2  4  1  0
  4  5  1  6
  5  6  1  0
  6  7  1  0
  6  8  2  0
  4  9  1  0
  9 10  1  0
 10 11  1  0
 11 12  2  0
 12 13  1  0
 13 14  2  0
 14 15  1  0
 15 16  2  0
 16 17  1  0
 17 18  2  0
 18 19  1  0
 19 10  2  0
 18 13  1  0
M  ISO  3   1   1   3   3   7   2
V    1 *
V    3 *
V    7 *
M  END
>  <symbol>  (864) 
D_b3h2Nal

>  <m_Rgroups>  (864) 
[H],[OH],[H],None,None,None

>  <m_abbr>  (864) 
D_b3h2Nal

>  <m_name>  (864) 
D-beta3-homo-2-naphthylalanine

>  <m_type>  (864) 
aa

>  <m_subtype>  (864) 
modified

>  <m_chem_types>  (864) 
1:backbone_n,2:backbone_c,3:backbone_n_mod

$$$$

     RDKit          2D

 14 13  0  0  0  0  0  0  0  0999 V2000
   -0.9424   -2.4658    0.0000 R   0  0  0  0  0  0  0  0  0  0  0  0
    0.5056   -2.0741    0.0000 N   0  0  0  0  0  0  0  0  0  0  0  0
    1.5688   -3.1322    0.0000 R   0  0  0  0  0  0  0  0  0  0  0  0
    0.8903   -0.6243    0.0000 C   0  0  0  0  0  0  0  0  0  0  0  0
    2.3383   -0.2325    0.0000 C   0  0  0  0  0  0  0  0  0  0  0  0
    2.7230    1.2173    0.0000 C   0  0  0  0  0  0  0  0  0  0  0  0
    4.1710    1.6090    0.0000 R   0  0  0  0  0  0  0  0  0  0  0  0
    1.6598    2.2754    0.0000 O   0  0  0  0  0  0  0  0  0  0  0  0
   -0.1729    0.4339    0.0000 C   0  0  0  0  0  0  0  0  0  0  0  0
   -1.6208    0.0421    0.0000 C   0  0  0  0  0  0  0  0  0  0  0  0
   -2.0056   -1.4077    0.0000 O   0  0  0  0  0  0  0  0  0  0  0  0
   -2.6840    1.1002    0.0000 N   0  0  0  0  0  0  0  0  0  0  0  0
   -4.1320    0.7085    0.0000 R   0  0  0  0  0  0  0  0  0  0  0  0
   -2.2993    2.5501    0.0000 R   0  0  0  0  0  0  0  0  0  0  0  0
  1  2  1  0
  2  3  1  0
  2  4  1  0
  4  5  1  6
  5  6  1  0
  6  7  1  0
  6  8  2  0
  4  9  1  0
  9 10  1  0
 10 11  2  0
 10 12  1  0
 12 13  1  0
 12 14  1  0
M  ISO  5   1   1   3   3   7   2  13   4  14   5
V    1 *
V    3 *
V    7 *
V   13 *
V   14 *
M  END
>  <symbol>  (865) 
D_b3hAsn

>  <m_Rgroups>  (865) 
[H],[OH],[H],[H],[H],None

>  <m_abbr>  (865) 
D_b3hAsn

>  <m_name>  (865) 
D-beta3-homoasparagine

>  <m_type>  (865) 
aa

>  <m_subtype>  (865) 
modified

>  <m_chem_types>  (865) 
1:backbone_n,2:backbone_c,3:backbone_n_mod

$$$$

     RDKit          2D

 15 14  0  0  0  0  0  0  0  0999 V2000
   -4.5037   -0.1907    0.0000 R   0  0  0  0  0  0  0  0  0  0  0  0
   -3.2062   -0.9434    0.0000 N   0  0  0  0  0  0  0  0  0  0  0  0
   -3.2093   -2.4434    0.0000 R   0  0  0  0  0  0  0  0  0  0  0  0
   -1.9057   -0.1961    0.0000 C   0  0  0  0  0  0  0  0  0  0  0  0
   -0.6082   -0.9488    0.0000 C   0  0  0  0  0  0  0  0  0  0  0  0
    0.6924   -0.2014    0.0000 C   0  0  0  0  0  0  0  0  0  0  0  0
    1.9899   -0.9541    0.0000 C   0  0  0  0  0  0  0  0  0  0  0  0
    1.9868   -2.4541    0.0000 O   0  0  0  0  0  0  0  0  0  0  0  0
    3.2905   -0.2068    0.0000 N   0  0  0  0  0  0  0  0  0  0  0  0
    4.5880   -0.9594    0.0000 R   0  0  0  0  0  0  0  0  0  0  0  0
    3.2936    1.2932    0.0000 R   0  0  0  0  0  0  0  0  0  0  0  0
   -1.9026    1.3039    0.0000 C   0  0  0  0  0  0  0  0  0  0  0  0
   -0.6020    2.0512    0.0000 C   0  0  0  0  0  0  0  0  0  0  0  0
   -0.5989    3.5512    0.0000 R   0  0  0  0  0  0  0  0  0  0  0  0
    0.6955    1.2986    0.0000 O   0  0  0  0  0  0  0  0  0  0  0  0
  1  2  1  0
  2  3  1  0
  2  4  1  0
  4  5  1  1
  5  6  1  0
  6  7  1  0
  7  8  2  0
  7  9  1  0
  9 10  1  0
  9 11  1  0
  4 12  1  0
 12 13  1  0
 13 14  1  0
 13 15  2  0
M  ISO  5   1   1   3   3  10   4  11   5  14   2
V    1 *
V    3 *
V   10 *
V   11 *
V   14 *
M  END
>  <symbol>  (866) 
D_b3hGln

>  <m_Rgroups>  (866) 
[H],[OH],[H],[H],[H],None

>  <m_abbr>  (866) 
D_b3hGln

>  <m_name>  (866) 
D-beta3-homoglutamine

>  <m_type>  (866) 
aa

>  <m_subtype>  (866) 
modified

>  <m_chem_types>  (866) 
1:backbone_n,2:backbone_c,3:backbone_n_mod

$$$$

     RDKit          2D

 15 15  0  0  0  0  0  0  0  0999 V2000
   -1.4734    1.2189    0.0000 R   0  0  0  0  0  0  0  0  0  0  0  0
   -0.6082    0.7179    0.0000 N   0  0  0  0  0  0  0  0  0  0  0  0
    0.2584    1.2169    0.0000 R   0  0  0  0  0  0  0  0  0  0  0  0
   -0.6094   -0.2821    0.0000 C   0  0  0  0  0  0  0  0  0  0  0  0
   -1.4760   -0.7811    0.0000 C   0  0  0  0  0  0  0  0  0  0  0  0
   -2.3412   -0.2801    0.0000 C   0  0  0  0  0  0  0  0  0  0  0  0
   -3.2078   -0.7791    0.0000 R   0  0  0  0  0  0  0  0  0  0  0  0
   -2.3400    0.7199    0.0000 O   0  0  0  0  0  0  0  0  0  0  0  0
    0.2560   -0.7831    0.0000 C   0  0  0  0  0  0  0  0  0  0  0  0
    1.1226   -0.2843    0.0000 C   0  0  0  0  0  0  0  0  0  0  0  0
    1.2282    0.7105    0.0000 C   0  0  0  0  0  0  0  0  0  0  0  0
    2.2064    0.9169    0.0000 N   0  0  0  0  0  0  0  0  0  0  0  0
    2.7058    0.0505    0.0000 C   0  0  0  0  0  0  0  0  0  0  0  0
    2.0356   -0.6919    0.0000 N   0  0  0  0  0  0  0  0  0  0  0  0
    2.2424   -1.6703    0.0000 R   0  0  0  0  0  0  0  0  0  0  0  0
  1  2  1  0
  2  3  1  0
  2  4  1  0
  4  5  1  6
  5  6  1  0
  6  7  1  0
  6  8  2  0
  4  9  1  0
  9 10  1  0
 10 11  2  0
 11 12  1  0
 12 13  2  0
 13 14  1  0
 14 15  1  0
 14 10  1  0
M  ISO  4   1   1   3   3   7   2  15   4
V    1 *
V    3 *
V    7 *
V   15 *
M  END
>  <symbol>  (867) 
D_b3hHis

>  <m_Rgroups>  (867) 
[H],[OH],[H],[H],None,None

>  <m_abbr>  (867) 
D_b3hHis

>  <m_name>  (867) 
D-beta3-homohistidine

>  <m_type>  (867) 
aa

>  <m_subtype>  (867) 
modified

>  <m_chem_types>  (867) 
1:backbone_n,2:backbone_c,3:backbone_n_mod,4:aromatic_nh

$$$$

     RDKit          2D

 17 17  0  0  0  0  0  0  0  0999 V2000
    1.9860    0.9133    0.0000 R   0  0  0  0  0  0  0  0  0  0  0  0
    1.1204    0.4127    0.0000 N   0  0  0  0  0  0  0  0  0  0  0  0
    0.2540    0.9119    0.0000 R   0  0  0  0  0  0  0  0  0  0  0  0
    1.1212   -0.5873    0.0000 C   0  0  0  0  0  0  0  0  0  0  0  0
    1.9876   -1.0867    0.0000 C   0  0  0  0  0  0  0  0  0  0  0  0
    2.8532   -0.5859    0.0000 C   0  0  0  0  0  0  0  0  0  0  0  0
    3.7196   -1.0853    0.0000 R   0  0  0  0  0  0  0  0  0  0  0  0
    2.8524    0.4141    0.0000 O   0  0  0  0  0  0  0  0  0  0  0  0
    0.2556   -1.0881    0.0000 C   0  0  0  0  0  0  0  0  0  0  0  0
   -0.6108   -0.5887    0.0000 C   0  0  0  0  0  0  0  0  0  0  0  0
   -0.6116    0.4113    0.0000 C   0  0  0  0  0  0  0  0  0  0  0  0
   -1.4780    0.9105    0.0000 C   0  0  0  0  0  0  0  0  0  0  0  0
   -2.3438    0.4099    0.0000 C   0  0  0  0  0  0  0  0  0  0  0  0
   -3.2100    0.9093    0.0000 C   0  0  0  0  0  0  0  0  0  0  0  0
   -4.0764    1.4085    0.0000 N   0  0  0  0  0  0  0  0  0  0  0  0
   -2.3430   -0.5901    0.0000 C   0  0  0  0  0  0  0  0  0  0  0  0
   -1.4764   -1.0893    0.0000 C   0  0  0  0  0  0  0  0  0  0  0  0
  1  2  1  0
  2  3  1  0
  2  4  1  0
  4  5  1  6
  5  6  1  0
  6  7  1  0
  6  8  2  0
  4  9  1  0
  9 10  1  0
 10 11  1  0
 11 12  2  0
 12 13  1  0
 13 14  1  0
 14 15  3  0
 13 16  2  0
 16 17  1  0
 17 10  2  0
M  ISO  3   1   1   3   3   7   2
V    1 *
V    3 *
V    7 *
M  END
>  <symbol>  (868) 
b3hPhe_4CN

>  <m_Rgroups>  (868) 
[H],[OH],[H],None,None,None

>  <m_abbr>  (868) 
b3hPhe_4CN

>  <m_name>  (868) 
L-beta3-homo-4-cyanophenylalanine

>  <m_type>  (868) 
aa

>  <m_subtype>  (868) 
modified

>  <m_chem_types>  (868) 
1:backbone_n,2:backbone_c,3:backbone_n_mod

$$$$

     RDKit          2D

 17 17  0  0  0  0  0  0  0  0999 V2000
    1.9860    0.9133    0.0000 R   0  0  0  0  0  0  0  0  0  0  0  0
    1.1204    0.4127    0.0000 N   0  0  0  0  0  0  0  0  0  0  0  0
    0.2540    0.9119    0.0000 R   0  0  0  0  0  0  0  0  0  0  0  0
    1.1212   -0.5873    0.0000 C   0  0  0  0  0  0  0  0  0  0  0  0
    1.9876   -1.0867    0.0000 C   0  0  0  0  0  0  0  0  0  0  0  0
    2.8532   -0.5859    0.0000 C   0  0  0  0  0  0  0  0  0  0  0  0
    3.7196   -1.0853    0.0000 R   0  0  0  0  0  0  0  0  0  0  0  0
    2.8524    0.4141    0.0000 O   0  0  0  0  0  0  0  0  0  0  0  0
    0.2556   -1.0881    0.0000 C   0  0  0  0  0  0  0  0  0  0  0  0
   -0.6108   -0.5887    0.0000 C   0  0  0  0  0  0  0  0  0  0  0  0
   -0.6116    0.4113    0.0000 C   0  0  0  0  0  0  0  0  0  0  0  0
   -1.4780    0.9105    0.0000 C   0  0  0  0  0  0  0  0  0  0  0  0
   -2.3438    0.4099    0.0000 C   0  0  0  0  0  0  0  0  0  0  0  0
   -3.2100    0.9093    0.0000 C   0  0  0  0  0  0  0  0  0  0  0  0
   -4.0764    1.4085    0.0000 N   0  0  0  0  0  0  0  0  0  0  0  0
   -2.3430   -0.5901    0.0000 C   0  0  0  0  0  0  0  0  0  0  0  0
   -1.4764   -1.0893    0.0000 C   0  0  0  0  0  0  0  0  0  0  0  0
  1  2  1  0
  2  3  1  0
  2  4  1  0
  4  5  1  1
  5  6  1  0
  6  7  1  0
  6  8  2  0
  4  9  1  0
  9 10  1  0
 10 11  1  0
 11 12  2  0
 12 13  1  0
 13 14  1  0
 14 15  3  0
 13 16  2  0
 16 17  1  0
 17 10  2  0
M  ISO  3   1   1   3   3   7   2
V    1 *
V    3 *
V    7 *
M  END
>  <symbol>  (869) 
D_b3hPhe_4CN

>  <m_Rgroups>  (869) 
[H],[OH],[H],None,None,None

>  <m_abbr>  (869) 
D_b3hPhe_4CN

>  <m_name>  (869) 
D-beta3-homo-4-cyanophenylalanine

>  <m_type>  (869) 
aa

>  <m_subtype>  (869) 
modified

>  <m_chem_types>  (869) 
1:backbone_n,2:backbone_c,3:backbone_n_mod

$$$$

     RDKit          2D

 19 19  0  0  0  0  0  0  0  0999 V2000
   -2.3239    0.7791    0.0000 R   0  0  0  0  0  0  0  0  0  0  0  0
   -1.4583    0.2783    0.0000 N   0  0  0  0  0  0  0  0  0  0  0  0
   -0.5919    0.7777    0.0000 R   0  0  0  0  0  0  0  0  0  0  0  0
   -1.4591   -0.7217    0.0000 C   0  0  0  0  0  0  0  0  0  0  0  0
   -2.3255   -1.2209    0.0000 C   0  0  0  0  0  0  0  0  0  0  0  0
   -3.1911   -0.7203    0.0000 C   0  0  0  0  0  0  0  0  0  0  0  0
   -4.0575   -1.2195    0.0000 R   0  0  0  0  0  0  0  0  0  0  0  0
   -3.1903    0.2797    0.0000 O   0  0  0  0  0  0  0  0  0  0  0  0
   -0.5935   -1.2223    0.0000 C   0  0  0  0  0  0  0  0  0  0  0  0
    0.2729   -0.7231    0.0000 C   0  0  0  0  0  0  0  0  0  0  0  0
    1.1385   -1.2235    0.0000 C   0  0  0  0  0  0  0  0  0  0  0  0
    2.0049   -0.7245    0.0000 C   0  0  0  0  0  0  0  0  0  0  0  0
    2.0057    0.2757    0.0000 C   0  0  0  0  0  0  0  0  0  0  0  0
    2.8721    0.7749    0.0000 C   0  0  0  0  0  0  0  0  0  0  0  0
    2.3729    1.6413    0.0000 F   0  0  0  0  0  0  0  0  0  0  0  0
    3.3729    1.6405    0.0000 F   0  0  0  0  0  0  0  0  0  0  0  0
    3.7377    0.2743    0.0000 F   0  0  0  0  0  0  0  0  0  0  0  0
    1.1401    0.7763    0.0000 C   0  0  0  0  0  0  0  0  0  0  0  0
    0.2737    0.2771    0.0000 C   0  0  0  0  0  0  0  0  0  0  0  0
  1  2  1  0
  2  3  1  0
  2  4  1  0
  4  5  1  1
  5  6  1  0
  6  7  1  0
  6  8  2  0
  4  9  1  0
  9 10  1  0
 10 11  1  0
 11 12  2  0
 12 13  1  0
 13 14  1  0
 14 15  1  0
 14 16  1  0
 14 17  1  0
 13 18  2  0
 18 19  1  0
 19 10  2  0
M  ISO  3   1   1   3   3   7   2
V    1 *
V    3 *
V    7 *
M  END
>  <symbol>  (870) 
b3hPhe_4CF3

>  <m_Rgroups>  (870) 
[H],[OH],[H],None,None,None

>  <m_abbr>  (870) 
b3hPhe_4CF3

>  <m_name>  (870) 
L-beta3-homo-4-(trifluoromethyl)phenylalanine

>  <m_type>  (870) 
aa

>  <m_subtype>  (870) 
modified

>  <m_chem_types>  (870) 
1:backbone_n,2:backbone_c,3:backbone_n_mod

$$$$

     RDKit          2D

 19 19  0  0  0  0  0  0  0  0999 V2000
   -2.3239    0.7791    0.0000 R   0  0  0  0  0  0  0  0  0  0  0  0
   -1.4583    0.2783    0.0000 N   0  0  0  0  0  0  0  0  0  0  0  0
   -0.5919    0.7777    0.0000 R   0  0  0  0  0  0  0  0  0  0  0  0
   -1.4591   -0.7217    0.0000 C   0  0  0  0  0  0  0  0  0  0  0  0
   -2.3255   -1.2209    0.0000 C   0  0  0  0  0  0  0  0  0  0  0  0
   -3.1911   -0.7203    0.0000 C   0  0  0  0  0  0  0  0  0  0  0  0
   -4.0575   -1.2195    0.0000 R   0  0  0  0  0  0  0  0  0  0  0  0
   -3.1903    0.2797    0.0000 O   0  0  0  0  0  0  0  0  0  0  0  0
   -0.5935   -1.2223    0.0000 C   0  0  0  0  0  0  0  0  0  0  0  0
    0.2729   -0.7231    0.0000 C   0  0  0  0  0  0  0  0  0  0  0  0
    1.1385   -1.2235    0.0000 C   0  0  0  0  0  0  0  0  0  0  0  0
    2.0049   -0.7245    0.0000 C   0  0  0  0  0  0  0  0  0  0  0  0
    2.0057    0.2757    0.0000 C   0  0  0  0  0  0  0  0  0  0  0  0
    2.8721    0.7749    0.0000 C   0  0  0  0  0  0  0  0  0  0  0  0
    2.3729    1.6413    0.0000 F   0  0  0  0  0  0  0  0  0  0  0  0
    3.3729    1.6405    0.0000 F   0  0  0  0  0  0  0  0  0  0  0  0
    3.7377    0.2743    0.0000 F   0  0  0  0  0  0  0  0  0  0  0  0
    1.1401    0.7763    0.0000 C   0  0  0  0  0  0  0  0  0  0  0  0
    0.2737    0.2771    0.0000 C   0  0  0  0  0  0  0  0  0  0  0  0
  1  2  1  0
  2  3  1  0
  2  4  1  0
  4  5  1  6
  5  6  1  0
  6  7  1  0
  6  8  2  0
  4  9  1  0
  9 10  1  0
 10 11  1  0
 11 12  2  0
 12 13  1  0
 13 14  1  0
 14 15  1  0
 14 16  1  0
 14 17  1  0
 13 18  2  0
 18 19  1  0
 19 10  2  0
M  ISO  3   1   1   3   3   7   2
V    1 *
V    3 *
V    7 *
M  END
>  <symbol>  (871) 
D_b3hPhe_4CF3

>  <m_Rgroups>  (871) 
[H],[OH],[H],None,None,None

>  <m_abbr>  (871) 
D_b3hPhe_4CF3

>  <m_name>  (871) 
D-beta3-homo-4-(trifluoromethyl)phenylalanine

>  <m_type>  (871) 
aa

>  <m_subtype>  (871) 
modified

>  <m_chem_types>  (871) 
1:backbone_n,2:backbone_c,3:backbone_n_mod

$$$$

     RDKit          2D

 16 16  0  0  0  0  0  0  0  0999 V2000
   -1.7312    1.0014    0.0000 R   0  0  0  0  0  0  0  0  0  0  0  0
   -0.8656    0.5006    0.0000 N   0  0  0  0  0  0  0  0  0  0  0  0
    0.0008    1.0000    0.0000 R   0  0  0  0  0  0  0  0  0  0  0  0
   -0.8664   -0.4994    0.0000 C   0  0  0  0  0  0  0  0  0  0  0  0
   -1.7328   -0.9986    0.0000 C   0  0  0  0  0  0  0  0  0  0  0  0
   -2.5984   -0.4980    0.0000 C   0  0  0  0  0  0  0  0  0  0  0  0
   -3.4648   -0.9972    0.0000 R   0  0  0  0  0  0  0  0  0  0  0  0
   -2.5976    0.5020    0.0000 O   0  0  0  0  0  0  0  0  0  0  0  0
   -0.0008   -1.0000    0.0000 C   0  0  0  0  0  0  0  0  0  0  0  0
    0.8656   -0.5008    0.0000 C   0  0  0  0  0  0  0  0  0  0  0  0
    0.8664    0.4994    0.0000 C   0  0  0  0  0  0  0  0  0  0  0  0
    1.7328    0.9986    0.0000 C   0  0  0  0  0  0  0  0  0  0  0  0
    2.5984    0.4980    0.0000 C   0  0  0  0  0  0  0  0  0  0  0  0
    3.4648    0.9972    0.0000 C   0  0  0  0  0  0  0  0  0  0  0  0
    2.5976   -0.5022    0.0000 C   0  0  0  0  0  0  0  0  0  0  0  0
    1.7312   -1.0012    0.0000 C   0  0  0  0  0  0  0  0  0  0  0  0
  1  2  1  0
  2  3  1  0
  2  4  1  0
  4  5  1  1
  5  6  1  0
  6  7  1  0
  6  8  2  0
  4  9  1  0
  9 10  1  0
 10 11  1  0
 11 12  2  0
 12 13  1  0
 13 14  1  0
 13 15  2  0
 15 16  1  0
 16 10  2  0
M  ISO  3   1   1   3   3   7   2
V    1 *
V    3 *
V    7 *
M  END
>  <symbol>  (872) 
b3hPhe_4Me

>  <m_Rgroups>  (872) 
[H],[OH],[H],None,None,None

>  <m_abbr>  (872) 
b3hPhe_4Me

>  <m_name>  (872) 
L-beta3-homo-4-methylphenylalanine

>  <m_type>  (872) 
aa

>  <m_subtype>  (872) 
modified

>  <m_chem_types>  (872) 
1:backbone_n,2:backbone_c,3:backbone_n_mod

$$$$

     RDKit          2D

 16 16  0  0  0  0  0  0  0  0999 V2000
   -1.7312    1.0014    0.0000 R   0  0  0  0  0  0  0  0  0  0  0  0
   -0.8656    0.5006    0.0000 N   0  0  0  0  0  0  0  0  0  0  0  0
    0.0008    1.0000    0.0000 R   0  0  0  0  0  0  0  0  0  0  0  0
   -0.8664   -0.4994    0.0000 C   0  0  0  0  0  0  0  0  0  0  0  0
   -1.7328   -0.9986    0.0000 C   0  0  0  0  0  0  0  0  0  0  0  0
   -2.5984   -0.4980    0.0000 C   0  0  0  0  0  0  0  0  0  0  0  0
   -3.4648   -0.9972    0.0000 R   0  0  0  0  0  0  0  0  0  0  0  0
   -2.5976    0.5020    0.0000 O   0  0  0  0  0  0  0  0  0  0  0  0
   -0.0008   -1.0000    0.0000 C   0  0  0  0  0  0  0  0  0  0  0  0
    0.8656   -0.5008    0.0000 C   0  0  0  0  0  0  0  0  0  0  0  0
    0.8664    0.4994    0.0000 C   0  0  0  0  0  0  0  0  0  0  0  0
    1.7328    0.9986    0.0000 C   0  0  0  0  0  0  0  0  0  0  0  0
    2.5984    0.4980    0.0000 C   0  0  0  0  0  0  0  0  0  0  0  0
    3.4648    0.9972    0.0000 C   0  0  0  0  0  0  0  0  0  0  0  0
    2.5976   -0.5022    0.0000 C   0  0  0  0  0  0  0  0  0  0  0  0
    1.7312   -1.0012    0.0000 C   0  0  0  0  0  0  0  0  0  0  0  0
  1  2  1  0
  2  3  1  0
  2  4  1  0
  4  5  1  6
  5  6  1  0
  6  7  1  0
  6  8  2  0
  4  9  1  0
  9 10  1  0
 10 11  1  0
 11 12  2  0
 12 13  1  0
 13 14  1  0
 13 15  2  0
 15 16  1  0
 16 10  2  0
M  ISO  3   1   1   3   3   7   2
V    1 *
V    3 *
V    7 *
M  END
>  <symbol>  (873) 
D_b3hPhe_4Me

>  <m_Rgroups>  (873) 
[H],[OH],[H],None,None,None

>  <m_abbr>  (873) 
D_b3hPhe_4Me

>  <m_name>  (873) 
D-beta3-homo-4-methylphenylalanine

>  <m_type>  (873) 
aa

>  <m_subtype>  (873) 
modified

>  <m_chem_types>  (873) 
1:backbone_n,2:backbone_c,3:backbone_n_mod

$$$$

     RDKit          2D

 18 18  0  0  0  0  0  0  0  0999 V2000
   -2.1643    0.8628    0.0000 R   0  0  0  0  0  0  0  0  0  0  0  0
   -1.2987    0.3622    0.0000 N   0  0  0  0  0  0  0  0  0  0  0  0
   -0.4323    0.8614    0.0000 R   0  0  0  0  0  0  0  0  0  0  0  0
   -1.2995   -0.6378    0.0000 C   0  0  0  0  0  0  0  0  0  0  0  0
   -2.1659   -1.1372    0.0000 C   0  0  0  0  0  0  0  0  0  0  0  0
   -3.0315   -0.6364    0.0000 C   0  0  0  0  0  0  0  0  0  0  0  0
   -3.8979   -1.1358    0.0000 R   0  0  0  0  0  0  0  0  0  0  0  0
   -3.0307    0.3636    0.0000 O   0  0  0  0  0  0  0  0  0  0  0  0
   -0.4339   -1.1386    0.0000 C   0  0  0  0  0  0  0  0  0  0  0  0
    0.4325   -0.6392    0.0000 C   0  0  0  0  0  0  0  0  0  0  0  0
    0.4333    0.3608    0.0000 C   0  0  0  0  0  0  0  0  0  0  0  0
    1.2997    0.8600    0.0000 C   0  0  0  0  0  0  0  0  0  0  0  0
    2.1653    0.3594    0.0000 C   0  0  0  0  0  0  0  0  0  0  0  0
    3.0317    0.8586    0.0000 N   0  0  0  0  0  0  0  0  0  0  0  0
    3.0325    1.8586    0.0000 O   0  0  0  0  0  0  0  0  0  0  0  0
    3.8973    0.3580    0.0000 O   0  0  0  0  0  0  0  0  0  0  0  0
    2.1645   -0.6406    0.0000 C   0  0  0  0  0  0  0  0  0  0  0  0
    1.2981   -1.1398    0.0000 C   0  0  0  0  0  0  0  0  0  0  0  0
  1  2  1  0
  2  3  1  0
  2  4  1  0
  4  5  1  1
  5  6  1  0
  6  7  1  0
  6  8  2  0
  4  9  1  0
  9 10  1  0
 10 11  1  0
 11 12  2  0
 12 13  1  0
 13 14  1  0
 14 15  2  0
 14 16  1  0
 13 17  2  0
 17 18  1  0
 18 10  2  0
M  CHG  2  14   1  16  -1
M  ISO  3   1   1   3   3   7   2
V    1 *
V    3 *
V    7 *
M  END
>  <symbol>  (874) 
b3hPhe_4NO2

>  <m_Rgroups>  (874) 
[H],[OH],[H],None,None,None

>  <m_abbr>  (874) 
b3hPhe_4NO2

>  <m_name>  (874) 
L-beta3-homo-4-nitrophenylalanine

>  <m_type>  (874) 
aa

>  <m_subtype>  (874) 
modified

>  <m_chem_types>  (874) 
1:backbone_n,2:backbone_c,3:backbone_n_mod

$$$$

     RDKit          2D

 18 18  0  0  0  0  0  0  0  0999 V2000
   -2.1643    0.8628    0.0000 R   0  0  0  0  0  0  0  0  0  0  0  0
   -1.2987    0.3622    0.0000 N   0  0  0  0  0  0  0  0  0  0  0  0
   -0.4323    0.8614    0.0000 R   0  0  0  0  0  0  0  0  0  0  0  0
   -1.2995   -0.6378    0.0000 C   0  0  0  0  0  0  0  0  0  0  0  0
   -2.1659   -1.1372    0.0000 C   0  0  0  0  0  0  0  0  0  0  0  0
   -3.0315   -0.6364    0.0000 C   0  0  0  0  0  0  0  0  0  0  0  0
   -3.8979   -1.1358    0.0000 R   0  0  0  0  0  0  0  0  0  0  0  0
   -3.0307    0.3636    0.0000 O   0  0  0  0  0  0  0  0  0  0  0  0
   -0.4339   -1.1386    0.0000 C   0  0  0  0  0  0  0  0  0  0  0  0
    0.4325   -0.6392    0.0000 C   0  0  0  0  0  0  0  0  0  0  0  0
    0.4333    0.3608    0.0000 C   0  0  0  0  0  0  0  0  0  0  0  0
    1.2997    0.8600    0.0000 C   0  0  0  0  0  0  0  0  0  0  0  0
    2.1653    0.3594    0.0000 C   0  0  0  0  0  0  0  0  0  0  0  0
    3.0317    0.8586    0.0000 N   0  0  0  0  0  0  0  0  0  0  0  0
    3.0325    1.8586    0.0000 O   0  0  0  0  0  0  0  0  0  0  0  0
    3.8973    0.3580    0.0000 O   0  0  0  0  0  0  0  0  0  0  0  0
    2.1645   -0.6406    0.0000 C   0  0  0  0  0  0  0  0  0  0  0  0
    1.2981   -1.1398    0.0000 C   0  0  0  0  0  0  0  0  0  0  0  0
  1  2  1  0
  2  3  1  0
  2  4  1  0
  4  5  1  6
  5  6  1  0
  6  7  1  0
  6  8  2  0
  4  9  1  0
  9 10  1  0
 10 11  1  0
 11 12  2  0
 12 13  1  0
 13 14  1  0
 14 15  2  0
 14 16  1  0
 13 17  2  0
 17 18  1  0
 18 10  2  0
M  CHG  2  14   1  16  -1
M  ISO  3   1   1   3   3   7   2
V    1 *
V    3 *
V    7 *
M  END
>  <symbol>  (875) 
D_b3hPhe_4NO2

>  <m_Rgroups>  (875) 
[H],[OH],[H],None,None,None

>  <m_abbr>  (875) 
D_b3hPhe_4NO2

>  <m_name>  (875) 
D-beta3-homo-4-nitrophenylalanine

>  <m_type>  (875) 
aa

>  <m_subtype>  (875) 
modified

>  <m_chem_types>  (875) 
1:backbone_n,2:backbone_c,3:backbone_n_mod

$$$$

     RDKit          2D

 18 18  0  0  0  0  0  0  0  0999 V2000
   -2.9642    1.8516    0.0000 R   0  0  0  0  0  0  0  0  0  0  0  0
   -1.8203    0.8814    0.0000 N   0  0  0  0  0  0  0  0  0  0  0  0
   -0.4081    1.3870    0.0000 R   0  0  0  0  0  0  0  0  0  0  0  0
   -2.0885   -0.5944    0.0000 C   0  0  0  0  0  0  0  0  0  0  0  0
   -3.5008   -1.1000    0.0000 C   0  0  0  0  0  0  0  0  0  0  0  0
   -4.6447   -0.1298    0.0000 C   0  0  0  0  0  0  0  0  0  0  0  0
   -6.0569   -0.6354    0.0000 R   0  0  0  0  0  0  0  0  0  0  0  0
   -4.3765    1.3460    0.0000 O   0  0  0  0  0  0  0  0  0  0  0  0
   -0.9446   -1.5646    0.0000 C   0  0  0  0  0  0  0  0  0  0  0  0
    0.4677   -1.0590    0.0000 C   0  0  0  0  0  0  0  0  0  0  0  0
    0.7359    0.4168    0.0000 C   0  0  0  0  0  0  0  0  0  0  0  0
    2.1481    0.9224    0.0000 C   0  0  0  0  0  0  0  0  0  0  0  0
    3.2921   -0.0479    0.0000 C   0  0  0  0  0  0  0  0  0  0  0  0
    4.7043    0.4577    0.0000 N   0  0  0  0  0  0  0  0  0  0  0  0
    5.8483   -0.5125    0.0000 R   0  0  0  0  0  0  0  0  0  0  0  0
    4.9726    1.9336    0.0000 R   0  0  0  0  0  0  0  0  0  0  0  0
    3.0239   -1.5237    0.0000 C   0  0  0  0  0  0  0  0  0  0  0  0
    1.6116   -2.0293    0.0000 C   0  0  0  0  0  0  0  0  0  0  0  0
  1  2  1  0
  2  3  1  0
  2  4  1  0
  4  5  1  1
  5  6  1  0
  6  7  1  0
  6  8  2  0
  4  9  1  0
  9 10  1  0
 10 11  1  0
 11 12  2  0
 12 13  1  0
 13 14  1  0
 14 15  1  0
 14 16  1  0
 13 17  2  0
 17 18  1  0
 18 10  2  0
M  ISO  5   1   1   3   3   7   2  15   4  16   5
V    1 *
V    3 *
V    7 *
V   15 *
V   16 *
M  END
>  <symbol>  (876) 
b3hPhe_4NH2

>  <m_Rgroups>  (876) 
[H],[OH],[H],[H],[H],None

>  <m_abbr>  (876) 
b3hPhe_4NH2

>  <m_name>  (876) 
L-beta3-homo-4-aminophenylalanine

>  <m_type>  (876) 
aa

>  <m_subtype>  (876) 
modified

>  <m_chem_types>  (876) 
1:backbone_n,2:backbone_c,3:backbone_n_mod

$$$$

     RDKit          2D

 18 18  0  0  0  0  0  0  0  0999 V2000
   -2.9642    1.8516    0.0000 R   0  0  0  0  0  0  0  0  0  0  0  0
   -1.8203    0.8814    0.0000 N   0  0  0  0  0  0  0  0  0  0  0  0
   -0.4081    1.3870    0.0000 R   0  0  0  0  0  0  0  0  0  0  0  0
   -2.0885   -0.5944    0.0000 C   0  0  0  0  0  0  0  0  0  0  0  0
   -3.5008   -1.1000    0.0000 C   0  0  0  0  0  0  0  0  0  0  0  0
   -4.6447   -0.1298    0.0000 C   0  0  0  0  0  0  0  0  0  0  0  0
   -6.0569   -0.6354    0.0000 R   0  0  0  0  0  0  0  0  0  0  0  0
   -4.3765    1.3460    0.0000 O   0  0  0  0  0  0  0  0  0  0  0  0
   -0.9446   -1.5646    0.0000 C   0  0  0  0  0  0  0  0  0  0  0  0
    0.4677   -1.0590    0.0000 C   0  0  0  0  0  0  0  0  0  0  0  0
    0.7359    0.4168    0.0000 C   0  0  0  0  0  0  0  0  0  0  0  0
    2.1481    0.9224    0.0000 C   0  0  0  0  0  0  0  0  0  0  0  0
    3.2921   -0.0479    0.0000 C   0  0  0  0  0  0  0  0  0  0  0  0
    4.7043    0.4577    0.0000 N   0  0  0  0  0  0  0  0  0  0  0  0
    5.8483   -0.5125    0.0000 R   0  0  0  0  0  0  0  0  0  0  0  0
    4.9726    1.9336    0.0000 R   0  0  0  0  0  0  0  0  0  0  0  0
    3.0239   -1.5237    0.0000 C   0  0  0  0  0  0  0  0  0  0  0  0
    1.6116   -2.0293    0.0000 C   0  0  0  0  0  0  0  0  0  0  0  0
  1  2  1  0
  2  3  1  0
  2  4  1  0
  4  5  1  6
  5  6  1  0
  6  7  1  0
  6  8  2  0
  4  9  1  0
  9 10  1  0
 10 11  1  0
 11 12  2  0
 12 13  1  0
 13 14  1  0
 14 15  1  0
 14 16  1  0
 13 17  2  0
 17 18  1  0
 18 10  2  0
M  ISO  5   1   1   3   3   7   2  15   4  16   5
V    1 *
V    3 *
V    7 *
V   15 *
V   16 *
M  END
>  <symbol>  (877) 
D_b3hPhe_4NH2

>  <m_Rgroups>  (877) 
[H],[OH],[H],[H],[H],None

>  <m_abbr>  (877) 
D_b3hPhe_4NH2

>  <m_name>  (877) 
D-beta3-homo-4-aminophenylalanine

>  <m_type>  (877) 
aa

>  <m_subtype>  (877) 
modified

>  <m_chem_types>  (877) 
1:backbone_n,2:backbone_c,3:backbone_n_mod

$$$$

     RDKit          2D

 16 16  0  0  0  0  0  0  0  0999 V2000
   -1.7312    1.0014    0.0000 R   0  0  0  0  0  0  0  0  0  0  0  0
   -0.8656    0.5006    0.0000 N   0  0  0  0  0  0  0  0  0  0  0  0
    0.0008    1.0000    0.0000 R   0  0  0  0  0  0  0  0  0  0  0  0
   -0.8664   -0.4994    0.0000 C   0  0  0  0  0  0  0  0  0  0  0  0
   -1.7328   -0.9986    0.0000 C   0  0  0  0  0  0  0  0  0  0  0  0
   -2.5984   -0.4980    0.0000 C   0  0  0  0  0  0  0  0  0  0  0  0
   -3.4648   -0.9972    0.0000 R   0  0  0  0  0  0  0  0  0  0  0  0
   -2.5976    0.5020    0.0000 O   0  0  0  0  0  0  0  0  0  0  0  0
   -0.0008   -1.0000    0.0000 C   0  0  0  0  0  0  0  0  0  0  0  0
    0.8656   -0.5008    0.0000 C   0  0  0  0  0  0  0  0  0  0  0  0
    0.8664    0.4994    0.0000 C   0  0  0  0  0  0  0  0  0  0  0  0
    1.7328    0.9986    0.0000 C   0  0  0  0  0  0  0  0  0  0  0  0
    2.5984    0.4980    0.0000 C   0  0  0  0  0  0  0  0  0  0  0  0
    3.4648    0.9972    0.0000 I   0  0  0  0  0  0  0  0  0  0  0  0
    2.5976   -0.5022    0.0000 C   0  0  0  0  0  0  0  0  0  0  0  0
    1.7312   -1.0012    0.0000 C   0  0  0  0  0  0  0  0  0  0  0  0
  1  2  1  0
  2  3  1  0
  2  4  1  0
  4  5  1  1
  5  6  1  0
  6  7  1  0
  6  8  2  0
  4  9  1  0
  9 10  1  0
 10 11  1  0
 11 12  2  0
 12 13  1  0
 13 14  1  0
 13 15  2  0
 15 16  1  0
 16 10  2  0
M  ISO  3   1   1   3   3   7   2
V    1 *
V    3 *
V    7 *
M  END
>  <symbol>  (878) 
b3hPhe_4I

>  <m_Rgroups>  (878) 
[H],[OH],[H],None,None,None

>  <m_abbr>  (878) 
b3hPhe_4I

>  <m_name>  (878) 
L-beta3-homo-4-iodophenylalanine

>  <m_type>  (878) 
aa

>  <m_subtype>  (878) 
modified

>  <m_chem_types>  (878) 
1:backbone_n,2:backbone_c,3:backbone_n_mod

$$$$

     RDKit          2D

 16 16  0  0  0  0  0  0  0  0999 V2000
   -1.7312    1.0014    0.0000 R   0  0  0  0  0  0  0  0  0  0  0  0
   -0.8656    0.5006    0.0000 N   0  0  0  0  0  0  0  0  0  0  0  0
    0.0008    1.0000    0.0000 R   0  0  0  0  0  0  0  0  0  0  0  0
   -0.8664   -0.4994    0.0000 C   0  0  0  0  0  0  0  0  0  0  0  0
   -1.7328   -0.9986    0.0000 C   0  0  0  0  0  0  0  0  0  0  0  0
   -2.5984   -0.4980    0.0000 C   0  0  0  0  0  0  0  0  0  0  0  0
   -3.4648   -0.9972    0.0000 R   0  0  0  0  0  0  0  0  0  0  0  0
   -2.5976    0.5020    0.0000 O   0  0  0  0  0  0  0  0  0  0  0  0
   -0.0008   -1.0000    0.0000 C   0  0  0  0  0  0  0  0  0  0  0  0
    0.8656   -0.5008    0.0000 C   0  0  0  0  0  0  0  0  0  0  0  0
    0.8664    0.4994    0.0000 C   0  0  0  0  0  0  0  0  0  0  0  0
    1.7328    0.9986    0.0000 C   0  0  0  0  0  0  0  0  0  0  0  0
    2.5984    0.4980    0.0000 C   0  0  0  0  0  0  0  0  0  0  0  0
    3.4648    0.9972    0.0000 I   0  0  0  0  0  0  0  0  0  0  0  0
    2.5976   -0.5022    0.0000 C   0  0  0  0  0  0  0  0  0  0  0  0
    1.7312   -1.0012    0.0000 C   0  0  0  0  0  0  0  0  0  0  0  0
  1  2  1  0
  2  3  1  0
  2  4  1  0
  4  5  1  6
  5  6  1  0
  6  7  1  0
  6  8  2  0
  4  9  1  0
  9 10  1  0
 10 11  1  0
 11 12  2  0
 12 13  1  0
 13 14  1  0
 13 15  2  0
 15 16  1  0
 16 10  2  0
M  ISO  3   1   1   3   3   7   2
V    1 *
V    3 *
V    7 *
M  END
>  <symbol>  (879) 
D_b3hPhe_4I

>  <m_Rgroups>  (879) 
[H],[OH],[H],None,None,None

>  <m_abbr>  (879) 
D_b3hPhe_4I

>  <m_name>  (879) 
D-beta3-homo-4-iodophenylalanine

>  <m_type>  (879) 
aa

>  <m_subtype>  (879) 
modified

>  <m_chem_types>  (879) 
1:backbone_n,2:backbone_c,3:backbone_n_mod

$$$$

     RDKit          2D

 15 15  0  0  0  0  0  0  0  0999 V2000
   -1.5002    1.0679    0.0000 R   0  0  0  0  0  0  0  0  0  0  0  0
   -0.6346    0.5673    0.0000 N   0  0  0  0  0  0  0  0  0  0  0  0
    0.2318    1.0665    0.0000 R   0  0  0  0  0  0  0  0  0  0  0  0
   -0.6354   -0.4327    0.0000 C   0  0  0  0  0  0  0  0  0  0  0  0
   -1.5018   -0.9321    0.0000 C   0  0  0  0  0  0  0  0  0  0  0  0
   -2.3674   -0.4315    0.0000 C   0  0  0  0  0  0  0  0  0  0  0  0
   -3.2338   -0.9307    0.0000 R   0  0  0  0  0  0  0  0  0  0  0  0
   -2.3666    0.5685    0.0000 O   0  0  0  0  0  0  0  0  0  0  0  0
    0.2302   -0.9335    0.0000 C   0  0  0  0  0  0  0  0  0  0  0  0
    1.0964   -0.4343    0.0000 C   0  0  0  0  0  0  0  0  0  0  0  0
    1.0972    0.5659    0.0000 C   0  0  0  0  0  0  0  0  0  0  0  0
    1.9638    1.0651    0.0000 C   0  0  0  0  0  0  0  0  0  0  0  0
    2.8294    0.5645    0.0000 C   0  0  0  0  0  0  0  0  0  0  0  0
    2.8286   -0.4355    0.0000 N   0  0  0  0  0  0  0  0  0  0  0  0
    1.9622   -0.9347    0.0000 C   0  0  0  0  0  0  0  0  0  0  0  0
  1  2  1  0
  2  3  1  0
  2  4  1  0
  4  5  1  1
  5  6  1  0
  6  7  1  0
  6  8  2  0
  4  9  1  0
  9 10  1  0
 10 11  2  0
 11 12  1  0
 12 13  2  0
 13 14  1  0
 14 15  2  0
 15 10  1  0
M  ISO  3   1   1   3   3   7   2
V    1 *
V    3 *
V    7 *
M  END
>  <symbol>  (880) 
b3h3Pal

>  <m_Rgroups>  (880) 
[H],[OH],[H],None,None,None

>  <m_abbr>  (880) 
b3h3Pal

>  <m_name>  (880) 
L-beta3-homo-3-pyridylalanine

>  <m_type>  (880) 
aa

>  <m_subtype>  (880) 
modified

>  <m_chem_types>  (880) 
1:backbone_n,2:backbone_c,3:backbone_n_mod

$$$$

     RDKit          2D

 15 15  0  0  0  0  0  0  0  0999 V2000
   -1.5002    1.0679    0.0000 R   0  0  0  0  0  0  0  0  0  0  0  0
   -0.6346    0.5673    0.0000 N   0  0  0  0  0  0  0  0  0  0  0  0
    0.2318    1.0665    0.0000 R   0  0  0  0  0  0  0  0  0  0  0  0
   -0.6354   -0.4327    0.0000 C   0  0  0  0  0  0  0  0  0  0  0  0
   -1.5018   -0.9321    0.0000 C   0  0  0  0  0  0  0  0  0  0  0  0
   -2.3674   -0.4315    0.0000 C   0  0  0  0  0  0  0  0  0  0  0  0
   -3.2338   -0.9307    0.0000 R   0  0  0  0  0  0  0  0  0  0  0  0
   -2.3666    0.5685    0.0000 O   0  0  0  0  0  0  0  0  0  0  0  0
    0.2302   -0.9335    0.0000 C   0  0  0  0  0  0  0  0  0  0  0  0
    1.0964   -0.4343    0.0000 C   0  0  0  0  0  0  0  0  0  0  0  0
    1.0972    0.5659    0.0000 C   0  0  0  0  0  0  0  0  0  0  0  0
    1.9638    1.0651    0.0000 C   0  0  0  0  0  0  0  0  0  0  0  0
    2.8294    0.5645    0.0000 C   0  0  0  0  0  0  0  0  0  0  0  0
    2.8286   -0.4355    0.0000 N   0  0  0  0  0  0  0  0  0  0  0  0
    1.9622   -0.9347    0.0000 C   0  0  0  0  0  0  0  0  0  0  0  0
  1  2  1  0
  2  3  1  0
  2  4  1  0
  4  5  1  6
  5  6  1  0
  6  7  1  0
  6  8  2  0
  4  9  1  0
  9 10  1  0
 10 11  2  0
 11 12  1  0
 12 13  2  0
 13 14  1  0
 14 15  2  0
 15 10  1  0
M  ISO  3   1   1   3   3   7   2
V    1 *
V    3 *
V    7 *
M  END
>  <symbol>  (881) 
D_b3h3Pal

>  <m_Rgroups>  (881) 
[H],[OH],[H],None,None,None

>  <m_abbr>  (881) 
D_b3h3Pal

>  <m_name>  (881) 
D-beta3-homo-3-pyridylalanine

>  <m_type>  (881) 
aa

>  <m_subtype>  (881) 
modified

>  <m_chem_types>  (881) 
1:backbone_n,2:backbone_c,3:backbone_n_mod

$$$$

     RDKit          2D

 15 15  0  0  0  0  0  0  0  0999 V2000
   -1.5002    1.0679    0.0000 R   0  0  0  0  0  0  0  0  0  0  0  0
   -0.6346    0.5673    0.0000 N   0  0  0  0  0  0  0  0  0  0  0  0
    0.2318    1.0665    0.0000 R   0  0  0  0  0  0  0  0  0  0  0  0
   -0.6354   -0.4327    0.0000 C   0  0  0  0  0  0  0  0  0  0  0  0
   -1.5018   -0.9321    0.0000 C   0  0  0  0  0  0  0  0  0  0  0  0
   -2.3674   -0.4315    0.0000 C   0  0  0  0  0  0  0  0  0  0  0  0
   -3.2338   -0.9307    0.0000 R   0  0  0  0  0  0  0  0  0  0  0  0
   -2.3666    0.5685    0.0000 O   0  0  0  0  0  0  0  0  0  0  0  0
    0.2302   -0.9335    0.0000 C   0  0  0  0  0  0  0  0  0  0  0  0
    1.0964   -0.4343    0.0000 C   0  0  0  0  0  0  0  0  0  0  0  0
    1.0972    0.5659    0.0000 C   0  0  0  0  0  0  0  0  0  0  0  0
    1.9638    1.0651    0.0000 C   0  0  0  0  0  0  0  0  0  0  0  0
    2.8294    0.5645    0.0000 N   0  0  0  0  0  0  0  0  0  0  0  0
    2.8286   -0.4355    0.0000 C   0  0  0  0  0  0  0  0  0  0  0  0
    1.9622   -0.9347    0.0000 C   0  0  0  0  0  0  0  0  0  0  0  0
  1  2  1  0
  2  3  1  0
  2  4  1  0
  4  5  1  1
  5  6  1  0
  6  7  1  0
  6  8  2  0
  4  9  1  0
  9 10  1  0
 10 11  1  0
 11 12  2  0
 12 13  1  0
 13 14  2  0
 14 15  1  0
 15 10  2  0
M  ISO  3   1   1   3   3   7   2
V    1 *
V    3 *
V    7 *
M  END
>  <symbol>  (882) 
b3h4Pal

>  <m_Rgroups>  (882) 
[H],[OH],[H],None,None,None

>  <m_abbr>  (882) 
b3h4Pal

>  <m_name>  (882) 
L-beta3-homo-4-pyridylalanine

>  <m_type>  (882) 
aa

>  <m_subtype>  (882) 
modified

>  <m_chem_types>  (882) 
1:backbone_n,2:backbone_c,3:backbone_n_mod

$$$$

     RDKit          2D

 15 15  0  0  0  0  0  0  0  0999 V2000
   -1.5002    1.0679    0.0000 R   0  0  0  0  0  0  0  0  0  0  0  0
   -0.6346    0.5673    0.0000 N   0  0  0  0  0  0  0  0  0  0  0  0
    0.2318    1.0665    0.0000 R   0  0  0  0  0  0  0  0  0  0  0  0
   -0.6354   -0.4327    0.0000 C   0  0  0  0  0  0  0  0  0  0  0  0
   -1.5018   -0.9321    0.0000 C   0  0  0  0  0  0  0  0  0  0  0  0
   -2.3674   -0.4315    0.0000 C   0  0  0  0  0  0  0  0  0  0  0  0
   -3.2338   -0.9307    0.0000 R   0  0  0  0  0  0  0  0  0  0  0  0
   -2.3666    0.5685    0.0000 O   0  0  0  0  0  0  0  0  0  0  0  0
    0.2302   -0.9335    0.0000 C   0  0  0  0  0  0  0  0  0  0  0  0
    1.0964   -0.4343    0.0000 C   0  0  0  0  0  0  0  0  0  0  0  0
    1.0972    0.5659    0.0000 C   0  0  0  0  0  0  0  0  0  0  0  0
    1.9638    1.0651    0.0000 C   0  0  0  0  0  0  0  0  0  0  0  0
    2.8294    0.5645    0.0000 N   0  0  0  0  0  0  0  0  0  0  0  0
    2.8286   -0.4355    0.0000 C   0  0  0  0  0  0  0  0  0  0  0  0
    1.9622   -0.9347    0.0000 C   0  0  0  0  0  0  0  0  0  0  0  0
  1  2  1  0
  2  3  1  0
  2  4  1  0
  4  5  1  6
  5  6  1  0
  6  7  1  0
  6  8  2  0
  4  9  1  0
  9 10  1  0
 10 11  1  0
 11 12  2  0
 12 13  1  0
 13 14  2  0
 14 15  1  0
 15 10  2  0
M  ISO  3   1   1   3   3   7   2
V    1 *
V    3 *
V    7 *
M  END
>  <symbol>  (883) 
D_b3h4Pal

>  <m_Rgroups>  (883) 
[H],[OH],[H],None,None,None

>  <m_abbr>  (883) 
D_b3h4Pal

>  <m_name>  (883) 
D-beta3-homo-4-pyridylalanine

>  <m_type>  (883) 
aa

>  <m_subtype>  (883) 
modified

>  <m_chem_types>  (883) 
1:backbone_n,2:backbone_c,3:backbone_n_mod

$$$$

     RDKit          2D

 14 13  0  0  0  0  0  0  0  0999 V2000
   -0.1881    1.2497    0.0000 R   0  0  0  0  0  0  0  0  0  0  0  0
    0.6789    0.7513    0.0000 N   0  0  0  0  0  0  0  0  0  0  0  0
    1.5439    1.2531    0.0000 R   0  0  0  0  0  0  0  0  0  0  0  0
    0.6809   -0.2487    0.0000 C   0  0  0  0  0  0  0  0  0  0  0  0
    1.5479   -0.7469    0.0000 C   0  0  0  0  0  0  0  0  0  0  0  0
    2.4129   -0.2451    0.0000 C   0  0  0  0  0  0  0  0  0  0  0  0
    3.2799   -0.7435    0.0000 R   0  0  0  0  0  0  0  0  0  0  0  0
    2.4109    0.7549    0.0000 O   0  0  0  0  0  0  0  0  0  0  0  0
   -0.1841   -0.7503    0.0000 C   0  0  0  0  0  0  0  0  0  0  0  0
   -1.0511   -0.2521    0.0000 C   0  0  0  0  0  0  0  0  0  0  0  0
   -1.9161   -0.7537    0.0000 C   0  0  0  0  0  0  0  0  0  0  0  0
   -2.7831   -0.2555    0.0000 N   0  0  0  0  0  0  0  0  0  0  0  0
   -3.6481   -0.7573    0.0000 R   0  0  0  0  0  0  0  0  0  0  0  0
   -2.7851    0.7445    0.0000 R   0  0  0  0  0  0  0  0  0  0  0  0
  1  2  1  0
  2  3  1  0
  2  4  1  0
  4  5  1  6
  5  6  1  0
  6  7  1  0
  6  8  2  0
  4  9  1  0
  9 10  1  0
 10 11  1  0
 11 12  1  0
 12 13  1  0
 12 14  1  0
M  ISO  5   1   1   3   3   7   2  13   4  14   5
V    1 *
V    3 *
V    7 *
V   13 *
V   14 *
M  END
>  <symbol>  (884) 
b3hOrn

>  <m_Rgroups>  (884) 
[H],[OH],[H],[H],[H],None

>  <m_abbr>  (884) 
b3hOrn

>  <m_name>  (884) 
L-beta3-homoornithine

>  <m_type>  (884) 
aa

>  <m_subtype>  (884) 
modified

>  <m_chem_types>  (884) 
1:backbone_n,2:backbone_c,3:backbone_n_mod,4:amine_primary,5:amine_secondary

$$$$

     RDKit          2D

 14 13  0  0  0  0  0  0  0  0999 V2000
   -0.1881    1.2497    0.0000 R   0  0  0  0  0  0  0  0  0  0  0  0
    0.6789    0.7513    0.0000 N   0  0  0  0  0  0  0  0  0  0  0  0
    1.5439    1.2531    0.0000 R   0  0  0  0  0  0  0  0  0  0  0  0
    0.6809   -0.2487    0.0000 C   0  0  0  0  0  0  0  0  0  0  0  0
    1.5479   -0.7469    0.0000 C   0  0  0  0  0  0  0  0  0  0  0  0
    2.4129   -0.2451    0.0000 C   0  0  0  0  0  0  0  0  0  0  0  0
    3.2799   -0.7435    0.0000 R   0  0  0  0  0  0  0  0  0  0  0  0
    2.4109    0.7549    0.0000 O   0  0  0  0  0  0  0  0  0  0  0  0
   -0.1841   -0.7503    0.0000 C   0  0  0  0  0  0  0  0  0  0  0  0
   -1.0511   -0.2521    0.0000 C   0  0  0  0  0  0  0  0  0  0  0  0
   -1.9161   -0.7537    0.0000 C   0  0  0  0  0  0  0  0  0  0  0  0
   -2.7831   -0.2555    0.0000 N   0  0  0  0  0  0  0  0  0  0  0  0
   -3.6481   -0.7573    0.0000 R   0  0  0  0  0  0  0  0  0  0  0  0
   -2.7851    0.7445    0.0000 R   0  0  0  0  0  0  0  0  0  0  0  0
  1  2  1  0
  2  3  1  0
  2  4  1  0
  4  5  1  1
  5  6  1  0
  6  7  1  0
  6  8  2  0
  4  9  1  0
  9 10  1  0
 10 11  1  0
 11 12  1  0
 12 13  1  0
 12 14  1  0
M  ISO  5   1   1   3   3   7   2  13   4  14   5
V    1 *
V    3 *
V    7 *
V   13 *
V   14 *
M  END
>  <symbol>  (885) 
D_b3hOrn

>  <m_Rgroups>  (885) 
[H],[OH],[H],[H],[H],None

>  <m_abbr>  (885) 
D_b3hOrn

>  <m_name>  (885) 
D-beta3-homoornithine

>  <m_type>  (885) 
aa

>  <m_subtype>  (885) 
modified

>  <m_chem_types>  (885) 
1:backbone_n,2:backbone_c,3:backbone_n_mod,4:amine_primary,5:amine_secondary

$$$$

     RDKit          2D

 13 12  0  0  0  0  0  0  0  0999 V2000
   -0.5357    1.3836    0.0000 R   0  0  0  0  0  0  0  0  0  0  0  0
    0.3313    0.8852    0.0000 N   0  0  0  0  0  0  0  0  0  0  0  0
    1.1963    1.3870    0.0000 R   0  0  0  0  0  0  0  0  0  0  0  0
    0.3333   -0.1148    0.0000 C   0  0  0  0  0  0  0  0  0  0  0  0
    1.2003   -0.6130    0.0000 C   0  0  0  0  0  0  0  0  0  0  0  0
    2.0655   -0.1112    0.0000 C   0  0  0  0  0  0  0  0  0  0  0  0
    2.9325   -0.6096    0.0000 R   0  0  0  0  0  0  0  0  0  0  0  0
    2.0633    0.8888    0.0000 O   0  0  0  0  0  0  0  0  0  0  0  0
   -0.5317   -0.6164    0.0000 C   0  0  0  0  0  0  0  0  0  0  0  0
   -1.3987   -0.1182    0.0000 C   0  0  0  0  0  0  0  0  0  0  0  0
   -2.2637   -0.6198    0.0000 N   0  0  0  0  0  0  0  0  0  0  0  0
   -3.1307   -0.1216    0.0000 R   0  0  0  0  0  0  0  0  0  0  0  0
   -2.2617   -1.6198    0.0000 R   0  0  0  0  0  0  0  0  0  0  0  0
  1  2  1  0
  2  3  1  0
  2  4  1  0
  4  5  1  6
  5  6  1  0
  6  7  1  0
  6  8  2  0
  4  9  1  0
  9 10  1  0
 10 11  1  0
 11 12  1  0
 11 13  1  0
M  ISO  5   1   1   3   3   7   2  12   4  13   5
V    1 *
V    3 *
V    7 *
V   12 *
V   13 *
M  END
>  <symbol>  (886) 
b3hDab

>  <m_Rgroups>  (886) 
[H],[OH],[H],[H],[H],None

>  <m_abbr>  (886) 
b3hDab

>  <m_name>  (886) 
L-beta3-homo-2,4-diaminobutyric acid

>  <m_type>  (886) 
aa

>  <m_subtype>  (886) 
modified

>  <m_chem_types>  (886) 
1:backbone_n,2:backbone_c,3:backbone_n_mod,4:amine_primary,5:amine_secondary

$$$$

     RDKit          2D

 13 12  0  0  0  0  0  0  0  0999 V2000
   -0.5357    1.3836    0.0000 R   0  0  0  0  0  0  0  0  0  0  0  0
    0.3313    0.8852    0.0000 N   0  0  0  0  0  0  0  0  0  0  0  0
    1.1963    1.3870    0.0000 R   0  0  0  0  0  0  0  0  0  0  0  0
    0.3333   -0.1148    0.0000 C   0  0  0  0  0  0  0  0  0  0  0  0
    1.2003   -0.6130    0.0000 C   0  0  0  0  0  0  0  0  0  0  0  0
    2.0655   -0.1112    0.0000 C   0  0  0  0  0  0  0  0  0  0  0  0
    2.9325   -0.6096    0.0000 R   0  0  0  0  0  0  0  0  0  0  0  0
    2.0633    0.8888    0.0000 O   0  0  0  0  0  0  0  0  0  0  0  0
   -0.5317   -0.6164    0.0000 C   0  0  0  0  0  0  0  0  0  0  0  0
   -1.3987   -0.1182    0.0000 C   0  0  0  0  0  0  0  0  0  0  0  0
   -2.2637   -0.6198    0.0000 N   0  0  0  0  0  0  0  0  0  0  0  0
   -3.1307   -0.1216    0.0000 R   0  0  0  0  0  0  0  0  0  0  0  0
   -2.2617   -1.6198    0.0000 R   0  0  0  0  0  0  0  0  0  0  0  0
  1  2  1  0
  2  3  1  0
  2  4  1  0
  4  5  1  1
  5  6  1  0
  6  7  1  0
  6  8  2  0
  4  9  1  0
  9 10  1  0
 10 11  1  0
 11 12  1  0
 11 13  1  0
M  ISO  5   1   1   3   3   7   2  12   4  13   5
V    1 *
V    3 *
V    7 *
V   12 *
V   13 *
M  END
>  <symbol>  (887) 
D_b3hDab

>  <m_Rgroups>  (887) 
[H],[OH],[H],[H],[H],None

>  <m_abbr>  (887) 
D_b3hDab

>  <m_name>  (887) 
D-beta3-homo-2,4-diaminobutyric acid

>  <m_type>  (887) 
aa

>  <m_subtype>  (887) 
modified

>  <m_chem_types>  (887) 
1:backbone_n,2:backbone_c,3:backbone_n_mod,4:amine_primary,5:amine_secondary

$$$$

     RDKit          2D

 12 11  0  0  0  0  0  0  0  0999 V2000
    0.8685    1.1649    0.0000 R   0  0  0  0  0  0  0  0  0  0  0  0
    0.0013    0.6667    0.0000 N   0  0  0  0  0  0  0  0  0  0  0  0
   -0.8637    1.1683    0.0000 R   0  0  0  0  0  0  0  0  0  0  0  0
   -0.0007   -0.3333    0.0000 C   0  0  0  0  0  0  0  0  0  0  0  0
   -0.8677   -0.8315    0.0000 C   0  0  0  0  0  0  0  0  0  0  0  0
   -1.7327   -0.3299    0.0000 C   0  0  0  0  0  0  0  0  0  0  0  0
   -2.5997   -0.8281    0.0000 R   0  0  0  0  0  0  0  0  0  0  0  0
   -1.7307    0.6701    0.0000 O   0  0  0  0  0  0  0  0  0  0  0  0
    0.8643   -0.8351    0.0000 C   0  0  0  0  0  0  0  0  0  0  0  0
    1.7313   -0.3367    0.0000 N   0  0  0  0  0  0  0  0  0  0  0  0
    2.5965   -0.8385    0.0000 R   0  0  0  0  0  0  0  0  0  0  0  0
    1.7335    0.6633    0.0000 R   0  0  0  0  0  0  0  0  0  0  0  0
  1  2  1  0
  2  3  1  0
  2  4  1  0
  4  5  1  1
  5  6  1  0
  6  7  1  0
  6  8  2  0
  4  9  1  0
  9 10  1  0
 10 11  1  0
 10 12  1  0
M  ISO  5   1   1   3   3   7   2  11   4  12   5
V    1 *
V    3 *
V    7 *
V   11 *
V   12 *
M  END
>  <symbol>  (888) 
b3hDap

>  <m_Rgroups>  (888) 
[H],[OH],[H],[H],[H],None

>  <m_abbr>  (888) 
b3hDap

>  <m_name>  (888) 
L-beta3-homo-2,3-diaminopropionic acid

>  <m_type>  (888) 
aa

>  <m_subtype>  (888) 
modified

>  <m_chem_types>  (888) 
1:backbone_n,2:backbone_c,3:backbone_n_mod,4:amine_primary,5:amine_secondary

$$$$

     RDKit          2D

 12 11  0  0  0  0  0  0  0  0999 V2000
    0.8685    1.1649    0.0000 R   0  0  0  0  0  0  0  0  0  0  0  0
    0.0013    0.6667    0.0000 N   0  0  0  0  0  0  0  0  0  0  0  0
   -0.8637    1.1683    0.0000 R   0  0  0  0  0  0  0  0  0  0  0  0
   -0.0007   -0.3333    0.0000 C   0  0  0  0  0  0  0  0  0  0  0  0
   -0.8677   -0.8315    0.0000 C   0  0  0  0  0  0  0  0  0  0  0  0
   -1.7327   -0.3299    0.0000 C   0  0  0  0  0  0  0  0  0  0  0  0
   -2.5997   -0.8281    0.0000 R   0  0  0  0  0  0  0  0  0  0  0  0
   -1.7307    0.6701    0.0000 O   0  0  0  0  0  0  0  0  0  0  0  0
    0.8643   -0.8351    0.0000 C   0  0  0  0  0  0  0  0  0  0  0  0
    1.7313   -0.3367    0.0000 N   0  0  0  0  0  0  0  0  0  0  0  0
    2.5965   -0.8385    0.0000 R   0  0  0  0  0  0  0  0  0  0  0  0
    1.7335    0.6633    0.0000 R   0  0  0  0  0  0  0  0  0  0  0  0
  1  2  1  0
  2  3  1  0
  2  4  1  0
  4  5  1  6
  5  6  1  0
  6  7  1  0
  6  8  2  0
  4  9  1  0
  9 10  1  0
 10 11  1  0
 10 12  1  0
M  ISO  5   1   1   3   3   7   2  11   4  12   5
V    1 *
V    3 *
V    7 *
V   11 *
V   12 *
M  END
>  <symbol>  (889) 
D_b3hDap

>  <m_Rgroups>  (889) 
[H],[OH],[H],[H],[H],None

>  <m_abbr>  (889) 
D_b3hDap

>  <m_name>  (889) 
D-beta3-homo-2,3-diaminopropionic acid

>  <m_type>  (889) 
aa

>  <m_subtype>  (889) 
modified

>  <m_chem_types>  (889) 
1:backbone_n,2:backbone_c,3:backbone_n_mod,4:amine_primary,5:amine_secondary

$$$$

     RDKit          2D

 11 10  0  0  0  0  0  0  0  0999 V2000
   -1.1771    1.8660    0.0000 R   0  0  0  0  0  0  0  0  0  0  0  0
   -1.1791    0.8660    0.0000 N   0  0  0  0  0  0  0  0  0  0  0  0
   -2.0463    0.3676    0.0000 R   0  0  0  0  0  0  0  0  0  0  0  0
   -0.3141    0.3642    0.0000 C   0  0  0  0  0  0  0  0  0  0  0  0
   -0.3163   -0.6358    0.0000 C   0  0  0  0  0  0  0  0  0  0  0  0
    0.5487   -1.1374    0.0000 C   0  0  0  0  0  0  0  0  0  0  0  0
    0.5467   -2.1374    0.0000 Se  0  0  0  0  0  2  0  0  0  0  0  0
    1.4117   -2.6392    0.0000 C   0  0  0  0  0  0  0  0  0  0  0  0
    0.5529    0.8624    0.0000 C   0  0  0  0  0  0  0  0  0  0  0  0
    1.4179    0.3608    0.0000 R   0  0  0  0  0  0  0  0  0  0  0  0
    0.5549    1.8624    0.0000 O   0  0  0  0  0  0  0  0  0  0  0  0
  1  2  1  0
  2  3  1  0
  2  4  1  0
  4  5  1  6
  5  6  1  0
  6  7  1  0
  7  8  1  0
  4  9  1  0
  9 10  1  0
  9 11  2  0
M  ISO  3   1   1   3   3  10   2
V    1 *
V    3 *
V   10 *
M  END
>  <symbol>  (890) 
SeM

>  <m_Rgroups>  (890) 
[H],[OH],[H],None,None,None

>  <m_abbr>  (890) 
SeM

>  <m_name>  (890) 
L-selenomethionine

>  <m_type>  (890) 
aa

>  <m_subtype>  (890) 
modified

>  <m_chem_types>  (890) 
1:backbone_n,2:backbone_c,3:backbone_n_mod

$$$$

     RDKit          2D

 11 10  0  0  0  0  0  0  0  0999 V2000
   -1.1771    1.8660    0.0000 R   0  0  0  0  0  0  0  0  0  0  0  0
   -1.1791    0.8660    0.0000 N   0  0  0  0  0  0  0  0  0  0  0  0
   -2.0463    0.3676    0.0000 R   0  0  0  0  0  0  0  0  0  0  0  0
   -0.3141    0.3642    0.0000 C   0  0  0  0  0  0  0  0  0  0  0  0
   -0.3163   -0.6358    0.0000 C   0  0  0  0  0  0  0  0  0  0  0  0
    0.5487   -1.1374    0.0000 C   0  0  0  0  0  0  0  0  0  0  0  0
    0.5467   -2.1374    0.0000 Se  0  0  0  0  0  2  0  0  0  0  0  0
    1.4117   -2.6392    0.0000 C   0  0  0  0  0  0  0  0  0  0  0  0
    0.5529    0.8624    0.0000 C   0  0  0  0  0  0  0  0  0  0  0  0
    1.4179    0.3608    0.0000 R   0  0  0  0  0  0  0  0  0  0  0  0
    0.5549    1.8624    0.0000 O   0  0  0  0  0  0  0  0  0  0  0  0
  1  2  1  0
  2  3  1  0
  2  4  1  0
  4  5  1  1
  5  6  1  0
  6  7  1  0
  7  8  1  0
  4  9  1  0
  9 10  1  0
  9 11  2  0
M  ISO  3   1   1   3   3  10   2
V    1 *
V    3 *
V   10 *
M  END
>  <symbol>  (891) 
D_SeM

>  <m_Rgroups>  (891) 
[H],[OH],[H],None,None,None

>  <m_abbr>  (891) 
D_SeM

>  <m_name>  (891) 
D-selenomethionine

>  <m_type>  (891) 
aa

>  <m_subtype>  (891) 
modified

>  <m_chem_types>  (891) 
1:backbone_n,2:backbone_c,3:backbone_n_mod

$$$$

     RDKit          2D

 10  9  0  0  0  0  0  0  0  0999 V2000
   -1.2990   -2.2500    0.0000 R   0  0  0  0  0  0  0  0  0  0  0  0
    0.0000   -1.5000    0.0000 N   0  0  0  0  0  0  0  0  0  0  0  0
    1.2990   -2.2500    0.0000 R   0  0  0  0  0  0  0  0  0  0  0  0
    0.0000    0.0000    0.0000 C   0  0  0  0  0  0  0  0  0  0  0  0
    1.2990    0.7500    0.0000 C   0  0  0  0  0  0  0  0  0  0  0  0
    1.2990    2.2500    0.0000 R   0  0  0  0  0  0  0  0  0  0  0  0
    2.5981    0.0000    0.0000 C   0  0  0  0  0  0  0  0  0  0  0  0
   -1.2990    0.7500    0.0000 C   0  0  0  0  0  0  0  0  0  0  0  0
   -1.2990    2.2500    0.0000 R   0  0  0  0  0  0  0  0  0  0  0  0
   -2.5981    0.0000    0.0000 O   0  0  0  0  0  0  0  0  0  0  0  0
  1  2  1  0
  2  3  1  0
  4  2  1  6
  4  5  1  0
  5  6  1  0
  5  7  2  0
  4  8  1  0
  8  9  1  0
  8 10  2  0
M  ISO  4   1   1   3   3   6   4   9   2
V    1 *
V    3 *
V    6 *
V    9 *
M  END
>  <symbol>  (892) 
VinGly

>  <m_Rgroups>  (892) 
[H],[OH],[H],[H],None,None

>  <m_abbr>  (892) 
VinGly

>  <m_name>  (892) 
L-vinylglycine (2-amino-3-butenoic acid)

>  <m_type>  (892) 
aa

>  <m_subtype>  (892) 
modified

>  <m_chem_types>  (892) 
1:backbone_n,2:backbone_c,3:backbone_n_mod

$$$$

     RDKit          2D

 10  9  0  0  0  0  0  0  0  0999 V2000
   -1.2990   -2.2500    0.0000 R   0  0  0  0  0  0  0  0  0  0  0  0
    0.0000   -1.5000    0.0000 N   0  0  0  0  0  0  0  0  0  0  0  0
    1.2990   -2.2500    0.0000 R   0  0  0  0  0  0  0  0  0  0  0  0
    0.0000    0.0000    0.0000 C   0  0  0  0  0  0  0  0  0  0  0  0
    1.2990    0.7500    0.0000 C   0  0  0  0  0  0  0  0  0  0  0  0
    1.2990    2.2500    0.0000 R   0  0  0  0  0  0  0  0  0  0  0  0
    2.5981    0.0000    0.0000 C   0  0  0  0  0  0  0  0  0  0  0  0
   -1.2990    0.7500    0.0000 C   0  0  0  0  0  0  0  0  0  0  0  0
   -1.2990    2.2500    0.0000 R   0  0  0  0  0  0  0  0  0  0  0  0
   -2.5981    0.0000    0.0000 O   0  0  0  0  0  0  0  0  0  0  0  0
  1  2  1  0
  2  3  1  0
  4  2  1  1
  4  5  1  0
  5  6  1  0
  5  7  2  0
  4  8  1  0
  8  9  1  0
  8 10  2  0
M  ISO  4   1   1   3   3   6   4   9   2
V    1 *
V    3 *
V    6 *
V    9 *
M  END
>  <symbol>  (893) 
D_VinGly

>  <m_Rgroups>  (893) 
[H],[OH],[H],[H],None,None

>  <m_abbr>  (893) 
D_VinGly

>  <m_name>  (893) 
D-vinylglycine

>  <m_type>  (893) 
aa

>  <m_subtype>  (893) 
modified

>  <m_chem_types>  (893) 
1:backbone_n,2:backbone_c,3:backbone_n_mod

$$$$

     RDKit          2D

 12 11  0  0  0  0  0  0  0  0999 V2000
   -3.2194    0.6578    0.0000 R   0  0  0  0  0  0  0  0  0  0  0  0
   -2.2612   -0.4963    0.0000 N   0  0  0  0  0  0  0  0  0  0  0  0
   -2.7816   -1.9032    0.0000 R   0  0  0  0  0  0  0  0  0  0  0  0
   -0.7826   -0.2436    0.0000 C   0  0  0  0  0  0  0  0  0  0  0  0
    0.1755   -1.3977    0.0000 C   0  0  0  0  0  0  0  0  0  0  0  0
    1.6541   -1.1450    0.0000 C   0  0  0  0  0  0  0  0  0  0  0  0
    2.6122   -2.2991    0.0000 R   0  0  0  0  0  0  0  0  0  0  0  0
    2.1745    0.2619    0.0000 C   0  0  0  0  0  0  0  0  0  0  0  0
    2.6949    1.6687    0.0000 C   0  0  0  0  0  0  0  0  0  0  0  0
   -0.2622    1.1632    0.0000 C   0  0  0  0  0  0  0  0  0  0  0  0
    1.2163    1.4160    0.0000 R   0  0  0  0  0  0  0  0  0  0  0  0
   -1.2204    2.3173    0.0000 O   0  0  0  0  0  0  0  0  0  0  0  0
  1  2  1  0
  2  3  1  0
  2  4  1  0
  4  5  1  6
  5  6  1  0
  6  7  1  0
  6  8  1  0
  8  9  3  0
  4 10  1  0
 10 11  1  0
 10 12  2  0
M  ISO  4   1   1   3   3   7   4  11   2
V    1 *
V    3 *
V    7 *
V   11 *
M  END
>  <symbol>  (894) 
HPG

>  <m_Rgroups>  (894) 
[H],[OH],[H],[H],None,None

>  <m_abbr>  (894) 
HPG

>  <m_name>  (894) 
L-homopropargylglycine (2-amino-5-hexynoic acid)

>  <m_type>  (894) 
aa

>  <m_subtype>  (894) 
modified

>  <m_chem_types>  (894) 
1:backbone_n,2:backbone_c,3:backbone_n_mod

$$$$

     RDKit          2D

 12 11  0  0  0  0  0  0  0  0999 V2000
   -3.2194    0.6578    0.0000 R   0  0  0  0  0  0  0  0  0  0  0  0
   -2.2612   -0.4963    0.0000 N   0  0  0  0  0  0  0  0  0  0  0  0
   -2.7816   -1.9032    0.0000 R   0  0  0  0  0  0  0  0  0  0  0  0
   -0.7826   -0.2436    0.0000 C   0  0  0  0  0  0  0  0  0  0  0  0
    0.1755   -1.3977    0.0000 C   0  0  0  0  0  0  0  0  0  0  0  0
    1.6541   -1.1450    0.0000 C   0  0  0  0  0  0  0  0  0  0  0  0
    2.6122   -2.2991    0.0000 R   0  0  0  0  0  0  0  0  0  0  0  0
    2.1745    0.2619    0.0000 C   0  0  0  0  0  0  0  0  0  0  0  0
    2.6949    1.6687    0.0000 C   0  0  0  0  0  0  0  0  0  0  0  0
   -0.2622    1.1632    0.0000 C   0  0  0  0  0  0  0  0  0  0  0  0
    1.2163    1.4160    0.0000 R   0  0  0  0  0  0  0  0  0  0  0  0
   -1.2204    2.3173    0.0000 O   0  0  0  0  0  0  0  0  0  0  0  0
  1  2  1  0
  2  3  1  0
  2  4  1  0
  4  5  1  1
  5  6  1  0
  6  7  1  0
  6  8  1  0
  8  9  3  0
  4 10  1  0
 10 11  1  0
 10 12  2  0
M  ISO  4   1   1   3   3   7   4  11   2
V    1 *
V    3 *
V    7 *
V   11 *
M  END
>  <symbol>  (895) 
D_HPG

>  <m_Rgroups>  (895) 
[H],[OH],[H],[H],None,None

>  <m_abbr>  (895) 
D_HPG

>  <m_name>  (895) 
D-homopropargylglycine

>  <m_type>  (895) 
aa

>  <m_subtype>  (895) 
modified

>  <m_chem_types>  (895) 
1:backbone_n,2:backbone_c,3:backbone_n_mod

$$$$

     RDKit          2D

 13 12  0  0  0  0  0  0  0  0999 V2000
   -1.6358    2.6813    0.0000 R   0  0  0  0  0  0  0  0  0  0  0  0
   -2.1808    1.2838    0.0000 N   0  0  0  0  0  0  0  0  0  0  0  0
   -3.6635    1.0569    0.0000 R   0  0  0  0  0  0  0  0  0  0  0  0
   -1.2429    0.1131    0.0000 C   0  0  0  0  0  0  0  0  0  0  0  0
    0.2398    0.3400    0.0000 C   0  0  0  0  0  0  0  0  0  0  0  0
    1.1776   -0.8307    0.0000 S   0  0  0  0  0  0  0  0  0  0  0  0
    2.6604   -0.6039    0.0000 C   0  0  0  0  0  0  0  0  0  0  0  0
    3.5982   -1.7746    0.0000 R   0  0  0  0  0  0  0  0  0  0  0  0
    3.2053    0.7936    0.0000 C   0  0  0  0  0  0  0  0  0  0  0  0
    3.7502    2.1912    0.0000 C   0  0  0  0  0  0  0  0  0  0  0  0
   -1.7879   -1.2844    0.0000 C   0  0  0  0  0  0  0  0  0  0  0  0
   -0.8500   -2.4551    0.0000 R   0  0  0  0  0  0  0  0  0  0  0  0
   -3.2706   -1.5112    0.0000 O   0  0  0  0  0  0  0  0  0  0  0  0
  1  2  1  0
  2  3  1  0
  2  4  1  0
  4  5  1  1
  5  6  1  0
  6  7  1  0
  7  8  1  0
  7  9  1  0
  9 10  3  0
  4 11  1  0
 11 12  1  0
 11 13  2  0
M  ISO  4   1   1   3   3   8   4  12   2
V    1 *
V    3 *
V    8 *
V   12 *
M  END
>  <symbol>  (896) 
Cys_Prg

>  <m_Rgroups>  (896) 
[H],[OH],[H],[H],None,None

>  <m_abbr>  (896) 
Cys_Prg

>  <m_name>  (896) 
L-S-propargylcysteine

>  <m_type>  (896) 
aa

>  <m_subtype>  (896) 
modified

>  <m_chem_types>  (896) 
1:backbone_n,2:backbone_c,3:backbone_n_mod

$$$$

     RDKit          2D

 13 12  0  0  0  0  0  0  0  0999 V2000
   -1.6358    2.6813    0.0000 R   0  0  0  0  0  0  0  0  0  0  0  0
   -2.1808    1.2838    0.0000 N   0  0  0  0  0  0  0  0  0  0  0  0
   -3.6635    1.0569    0.0000 R   0  0  0  0  0  0  0  0  0  0  0  0
   -1.2429    0.1131    0.0000 C   0  0  0  0  0  0  0  0  0  0  0  0
    0.2398    0.3400    0.0000 C   0  0  0  0  0  0  0  0  0  0  0  0
    1.1776   -0.8307    0.0000 S   0  0  0  0  0  0  0  0  0  0  0  0
    2.6604   -0.6039    0.0000 C   0  0  0  0  0  0  0  0  0  0  0  0
    3.5982   -1.7746    0.0000 R   0  0  0  0  0  0  0  0  0  0  0  0
    3.2053    0.7936    0.0000 C   0  0  0  0  0  0  0  0  0  0  0  0
    3.7502    2.1912    0.0000 C   0  0  0  0  0  0  0  0  0  0  0  0
   -1.7879   -1.2844    0.0000 C   0  0  0  0  0  0  0  0  0  0  0  0
   -0.8500   -2.4551    0.0000 R   0  0  0  0  0  0  0  0  0  0  0  0
   -3.2706   -1.5112    0.0000 O   0  0  0  0  0  0  0  0  0  0  0  0
  1  2  1  0
  2  3  1  0
  2  4  1  0
  4  5  1  6
  5  6  1  0
  6  7  1  0
  7  8  1  0
  7  9  1  0
  9 10  3  0
  4 11  1  0
 11 12  1  0
 11 13  2  0
M  ISO  4   1   1   3   3   8   4  12   2
V    1 *
V    3 *
V    8 *
V   12 *
M  END
>  <symbol>  (897) 
D_Cys_Prg

>  <m_Rgroups>  (897) 
[H],[OH],[H],[H],None,None

>  <m_abbr>  (897) 
D_Cys_Prg

>  <m_name>  (897) 
D-S-propargylcysteine

>  <m_type>  (897) 
aa

>  <m_subtype>  (897) 
modified

>  <m_chem_types>  (897) 
1:backbone_n,2:backbone_c,3:backbone_n_mod

$$$$

     RDKit          2D

 10  9  0  0  0  0  0  0  0  0999 V2000
   -1.2990   -2.2500    0.0000 R   0  0  0  0  0  0  0  0  0  0  0  0
    0.0000   -1.5000    0.0000 N   0  0  0  0  0  0  0  0  0  0  0  0
    1.2990   -2.2500    0.0000 R   0  0  0  0  0  0  0  0  0  0  0  0
    0.0000    0.0000    0.0000 C   0  0  0  0  0  0  0  0  0  0  0  0
    1.2990    0.7500    0.0000 C   0  0  0  0  0  0  0  0  0  0  0  0
    1.2990    2.2500    0.0000 R   0  0  0  0  0  0  0  0  0  0  0  0
    2.5981    0.0000    0.0000 O   0  0  0  0  0  0  0  0  0  0  0  0
   -1.2990    0.7500    0.0000 C   0  0  0  0  0  0  0  0  0  0  0  0
   -1.2990    2.2500    0.0000 R   0  0  0  0  0  0  0  0  0  0  0  0
   -2.5981    0.0000    0.0000 Br  0  0  0  0  0  0  0  0  0  0  0  0
  1  2  1  0
  2  3  1  0
  2  4  1  0
  4  5  1  0
  5  6  1  0
  5  7  2  0
  4  8  1  1
  8  9  1  0
  8 10  1  0
M  ISO  4   1   1   3   3   6   2   9   4
V    1 *
V    3 *
V    6 *
V    9 *
M  END
>  <symbol>  (898) 
Ala_3Br

>  <m_Rgroups>  (898) 
[H],[OH],[H],[H],None,None

>  <m_abbr>  (898) 
Ala_3Br

>  <m_name>  (898) 
L-beta-bromoalanine

>  <m_type>  (898) 
aa

>  <m_subtype>  (898) 
modified

>  <m_chem_types>  (898) 
1:backbone_n,2:backbone_c,3:backbone_n_mod

$$$$

     RDKit          2D

 10  9  0  0  0  0  0  0  0  0999 V2000
   -1.2990   -2.2500    0.0000 R   0  0  0  0  0  0  0  0  0  0  0  0
    0.0000   -1.5000    0.0000 N   0  0  0  0  0  0  0  0  0  0  0  0
    1.2990   -2.2500    0.0000 R   0  0  0  0  0  0  0  0  0  0  0  0
    0.0000    0.0000    0.0000 C   0  0  0  0  0  0  0  0  0  0  0  0
    1.2990    0.7500    0.0000 C   0  0  0  0  0  0  0  0  0  0  0  0
    1.2990    2.2500    0.0000 R   0  0  0  0  0  0  0  0  0  0  0  0
    2.5981    0.0000    0.0000 O   0  0  0  0  0  0  0  0  0  0  0  0
   -1.2990    0.7500    0.0000 C   0  0  0  0  0  0  0  0  0  0  0  0
   -1.2990    2.2500    0.0000 R   0  0  0  0  0  0  0  0  0  0  0  0
   -2.5981    0.0000    0.0000 Br  0  0  0  0  0  0  0  0  0  0  0  0
  1  2  1  0
  2  3  1  0
  2  4  1  0
  4  5  1  0
  5  6  1  0
  5  7  2  0
  4  8  1  6
  8  9  1  0
  8 10  1  0
M  ISO  4   1   1   3   3   6   2   9   4
V    1 *
V    3 *
V    6 *
V    9 *
M  END
>  <symbol>  (899) 
D_Ala_3Br

>  <m_Rgroups>  (899) 
[H],[OH],[H],[H],None,None

>  <m_abbr>  (899) 
D_Ala_3Br

>  <m_name>  (899) 
D-beta-bromoalanine

>  <m_type>  (899) 
aa

>  <m_subtype>  (899) 
modified

>  <m_chem_types>  (899) 
1:backbone_n,2:backbone_c,3:backbone_n_mod

$$$$

     RDKit          2D

 10  9  0  0  0  0  0  0  0  0999 V2000
   -1.2990   -2.2500    0.0000 R   0  0  0  0  0  0  0  0  0  0  0  0
    0.0000   -1.5000    0.0000 N   0  0  0  0  0  0  0  0  0  0  0  0
    1.2990   -2.2500    0.0000 R   0  0  0  0  0  0  0  0  0  0  0  0
    0.0000    0.0000    0.0000 C   0  0  0  0  0  0  0  0  0  0  0  0
    1.2990    0.7500    0.0000 C   0  0  0  0  0  0  0  0  0  0  0  0
    1.2990    2.2500    0.0000 R   0  0  0  0  0  0  0  0  0  0  0  0
    2.5981    0.0000    0.0000 O   0  0  0  0  0  0  0  0  0  0  0  0
   -1.2990    0.7500    0.0000 C   0  0  0  0  0  0  0  0  0  0  0  0
   -1.2990    2.2500    0.0000 R   0  0  0  0  0  0  0  0  0  0  0  0
   -2.5981    0.0000    0.0000 Cl  0  0  0  0  0  0  0  0  0  0  0  0
  1  2  1  0
  2  3  1  0
  2  4  1  0
  4  5  1  0
  5  6  1  0
  5  7  2  0
  4  8  1  1
  8  9  1  0
  8 10  1  0
M  ISO  4   1   1   3   3   6   2   9   4
V    1 *
V    3 *
V    6 *
V    9 *
M  END
>  <symbol>  (900) 
Ala_3Cl

>  <m_Rgroups>  (900) 
[H],[OH],[H],[H],None,None

>  <m_abbr>  (900) 
Ala_3Cl

>  <m_name>  (900) 
L-beta-chloroalanine

>  <m_type>  (900) 
aa

>  <m_subtype>  (900) 
modified

>  <m_chem_types>  (900) 
1:backbone_n,2:backbone_c,3:backbone_n_mod

$$$$

     RDKit          2D

 10  9  0  0  0  0  0  0  0  0999 V2000
   -1.2990   -2.2500    0.0000 R   0  0  0  0  0  0  0  0  0  0  0  0
    0.0000   -1.5000    0.0000 N   0  0  0  0  0  0  0  0  0  0  0  0
    1.2990   -2.2500    0.0000 R   0  0  0  0  0  0  0  0  0  0  0  0
    0.0000    0.0000    0.0000 C   0  0  0  0  0  0  0  0  0  0  0  0
    1.2990    0.7500    0.0000 C   0  0  0  0  0  0  0  0  0  0  0  0
    1.2990    2.2500    0.0000 R   0  0  0  0  0  0  0  0  0  0  0  0
    2.5981    0.0000    0.0000 O   0  0  0  0  0  0  0  0  0  0  0  0
   -1.2990    0.7500    0.0000 C   0  0  0  0  0  0  0  0  0  0  0  0
   -1.2990    2.2500    0.0000 R   0  0  0  0  0  0  0  0  0  0  0  0
   -2.5981    0.0000    0.0000 Cl  0  0  0  0  0  0  0  0  0  0  0  0
  1  2  1  0
  2  3  1  0
  2  4  1  0
  4  5  1  0
  5  6  1  0
  5  7  2  0
  4  8  1  6
  8  9  1  0
  8 10  1  0
M  ISO  4   1   1   3   3   6   2   9   4
V    1 *
V    3 *
V    6 *
V    9 *
M  END
>  <symbol>  (901) 
D_Ala_3Cl

>  <m_Rgroups>  (901) 
[H],[OH],[H],[H],None,None

>  <m_abbr>  (901) 
D_Ala_3Cl

>  <m_name>  (901) 
D-beta-chloroalanine

>  <m_type>  (901) 
aa

>  <m_subtype>  (901) 
modified

>  <m_chem_types>  (901) 
1:backbone_n,2:backbone_c,3:backbone_n_mod

$$$$

     RDKit          2D

 15 15  0  0  0  0  0  0  0  0999 V2000
   -0.0559   -2.3667    0.0000 R   0  0  0  0  0  0  0  0  0  0  0  0
   -0.0567   -1.3667    0.0000 N   0  0  0  0  0  0  0  0  0  0  0  0
   -0.9231   -0.8673    0.0000 R   0  0  0  0  0  0  0  0  0  0  0  0
    0.8089   -0.8659    0.0000 C   0  0  0  0  0  0  0  0  0  0  0  0
    0.8081    0.1341    0.0000 C   0  0  0  0  0  0  0  0  0  0  0  0
   -0.0581    0.6333    0.0000 C   0  0  0  0  0  0  0  0  0  0  0  0
   -0.9239    0.1327    0.0000 C   0  0  0  0  0  0  0  0  0  0  0  0
   -1.7903    0.6319    0.0000 C   0  0  0  0  0  0  0  0  0  0  0  0
   -1.7911    1.6319    0.0000 C   0  0  0  0  0  0  0  0  0  0  0  0
   -0.9253    2.1325    0.0000 C   0  0  0  0  0  0  0  0  0  0  0  0
   -0.9261    3.1327    0.0000 I   0  0  0  0  0  0  0  0  0  0  0  0
   -0.0589    1.6333    0.0000 C   0  0  0  0  0  0  0  0  0  0  0  0
    1.6753   -1.3653    0.0000 C   0  0  0  0  0  0  0  0  0  0  0  0
    1.6761   -2.3653    0.0000 R   0  0  0  0  0  0  0  0  0  0  0  0
    2.5409   -0.8647    0.0000 O   0  0  0  0  0  0  0  0  0  0  0  0
  1  2  1  0
  2  3  1  0
  2  4  1  0
  4  5  1  1
  5  6  1  0
  6  7  2  0
  7  8  1  0
  8  9  2  0
  9 10  1  0
 10 11  1  0
 10 12  2  0
  4 13  1  0
 13 14  1  0
 13 15  2  0
 12  6  1  0
M  ISO  3   1   1   3   3  14   2
V    1 *
V    3 *
V   14 *
M  END
>  <symbol>  (902) 
Phe_3I

>  <m_Rgroups>  (902) 
[H],[OH],[H],None,None,None

>  <m_abbr>  (902) 
Phe_3I

>  <m_name>  (902) 
L-3-iodophenylalanine

>  <m_type>  (902) 
aa

>  <m_subtype>  (902) 
modified

>  <m_chem_types>  (902) 
1:backbone_n,2:backbone_c,3:backbone_n_mod

$$$$

     RDKit          2D

 15 15  0  0  0  0  0  0  0  0999 V2000
   -0.0559   -2.3667    0.0000 R   0  0  0  0  0  0  0  0  0  0  0  0
   -0.0567   -1.3667    0.0000 N   0  0  0  0  0  0  0  0  0  0  0  0
   -0.9231   -0.8673    0.0000 R   0  0  0  0  0  0  0  0  0  0  0  0
    0.8089   -0.8659    0.0000 C   0  0  0  0  0  0  0  0  0  0  0  0
    0.8081    0.1341    0.0000 C   0  0  0  0  0  0  0  0  0  0  0  0
   -0.0581    0.6333    0.0000 C   0  0  0  0  0  0  0  0  0  0  0  0
   -0.9239    0.1327    0.0000 C   0  0  0  0  0  0  0  0  0  0  0  0
   -1.7903    0.6319    0.0000 C   0  0  0  0  0  0  0  0  0  0  0  0
   -1.7911    1.6319    0.0000 C   0  0  0  0  0  0  0  0  0  0  0  0
   -0.9253    2.1325    0.0000 C   0  0  0  0  0  0  0  0  0  0  0  0
   -0.9261    3.1327    0.0000 I   0  0  0  0  0  0  0  0  0  0  0  0
   -0.0589    1.6333    0.0000 C   0  0  0  0  0  0  0  0  0  0  0  0
    1.6753   -1.3653    0.0000 C   0  0  0  0  0  0  0  0  0  0  0  0
    1.6761   -2.3653    0.0000 R   0  0  0  0  0  0  0  0  0  0  0  0
    2.5409   -0.8647    0.0000 O   0  0  0  0  0  0  0  0  0  0  0  0
  1  2  1  0
  2  3  1  0
  2  4  1  0
  4  5  1  6
  5  6  1  0
  6  7  2  0
  7  8  1  0
  8  9  2  0
  9 10  1  0
 10 11  1  0
 10 12  2  0
  4 13  1  0
 13 14  1  0
 13 15  2  0
 12  6  1  0
M  ISO  3   1   1   3   3  14   2
V    1 *
V    3 *
V   14 *
M  END
>  <symbol>  (903) 
D_Phe_3I

>  <m_Rgroups>  (903) 
[H],[OH],[H],None,None,None

>  <m_abbr>  (903) 
D_Phe_3I

>  <m_name>  (903) 
D-3-iodophenylalanine

>  <m_type>  (903) 
aa

>  <m_subtype>  (903) 
modified

>  <m_chem_types>  (903) 
1:backbone_n,2:backbone_c,3:backbone_n_mod

$$$$

     RDKit          2D

 13 13  0  0  0  0  0  0  0  0999 V2000
   -0.1529   -1.9817    0.0000 R   0  0  0  0  0  0  0  0  0  0  0  0
    0.0047   -0.9943    0.0000 N   0  0  0  0  0  0  0  0  0  0  0  0
   -0.7017   -0.2861    0.0000 C   0  0  0  0  0  0  0  0  0  0  0  0
   -0.2463    0.6041    0.0000 C   0  0  0  0  0  0  0  0  0  0  0  0
   -0.6993    1.4957    0.0000 O   0  0  0  0  0  0  0  0  0  0  0  0
   -1.6979    1.5493    0.0000 C   0  0  0  0  0  0  0  0  0  0  0  0
   -2.2435    0.7113    0.0000 O   0  0  0  0  0  0  0  0  0  0  0  0
   -2.1507    2.4409    0.0000 C   0  0  0  0  0  0  0  0  0  0  0  0
    0.7411    0.4467    0.0000 C   0  0  0  0  0  0  0  0  0  0  0  0
    0.8963   -0.5413    0.0000 C   0  0  0  0  0  0  0  0  0  0  0  0
    1.7867   -0.9963    0.0000 C   0  0  0  0  0  0  0  0  0  0  0  0
    1.8379   -1.9951    0.0000 R   0  0  0  0  0  0  0  0  0  0  0  0
    2.6259   -0.4527    0.0000 O   0  0  0  0  0  0  0  0  0  0  0  0
  1  2  1  0
  2  3  1  0
  3  4  1  0
  4  5  1  1
  5  6  1  0
  6  7  2  0
  6  8  1  0
  4  9  1  0
  9 10  1  0
 10 11  1  1
 11 12  1  0
 11 13  2  0
 10  2  1  0
M  ISO  2   1   1  12   2
V    1 *
V   12 *
M  END
>  <symbol>  (904) 
Pro_4OAc

>  <m_Rgroups>  (904) 
[H],[OH],None,None,None,None

>  <m_abbr>  (904) 
Pro_4OAc

>  <m_name>  (904) 
L-trans-4-acetoxypyrrolidine-2-carboxylic acid

>  <m_type>  (904) 
aa

>  <m_subtype>  (904) 
modified

>  <m_chem_types>  (904) 
1:backbone_n,2:backbone_c

$$$$

     RDKit          2D

 13 13  0  0  0  0  0  0  0  0999 V2000
   -0.1529   -1.9817    0.0000 R   0  0  0  0  0  0  0  0  0  0  0  0
    0.0047   -0.9943    0.0000 N   0  0  0  0  0  0  0  0  0  0  0  0
   -0.7017   -0.2861    0.0000 C   0  0  0  0  0  0  0  0  0  0  0  0
   -0.2463    0.6041    0.0000 C   0  0  0  0  0  0  0  0  0  0  0  0
   -0.6993    1.4957    0.0000 O   0  0  0  0  0  0  0  0  0  0  0  0
   -1.6979    1.5493    0.0000 C   0  0  0  0  0  0  0  0  0  0  0  0
   -2.2435    0.7113    0.0000 O   0  0  0  0  0  0  0  0  0  0  0  0
   -2.1507    2.4409    0.0000 C   0  0  0  0  0  0  0  0  0  0  0  0
    0.7411    0.4467    0.0000 C   0  0  0  0  0  0  0  0  0  0  0  0
    0.8963   -0.5413    0.0000 C   0  0  0  0  0  0  0  0  0  0  0  0
    1.7867   -0.9963    0.0000 C   0  0  0  0  0  0  0  0  0  0  0  0
    1.8379   -1.9951    0.0000 R   0  0  0  0  0  0  0  0  0  0  0  0
    2.6259   -0.4527    0.0000 O   0  0  0  0  0  0  0  0  0  0  0  0
  1  2  1  0
  2  3  1  0
  3  4  1  0
  4  5  1  1
  5  6  1  0
  6  7  2  0
  6  8  1  0
  4  9  1  0
  9 10  1  0
 10 11  1  6
 11 12  1  0
 11 13  2  0
 10  2  1  0
M  ISO  2   1   1  12   2
V    1 *
V   12 *
M  END
>  <symbol>  (905) 
D_Pro_4OAc

>  <m_Rgroups>  (905) 
[H],[OH],None,None,None,None

>  <m_abbr>  (905) 
D_Pro_4OAc

>  <m_name>  (905) 
D-trans-4-acetoxypyrrolidine-2-carboxylic acid

>  <m_type>  (905) 
aa

>  <m_subtype>  (905) 
modified

>  <m_chem_types>  (905) 
1:backbone_n,2:backbone_c

$$$$

     RDKit          2D

 11 11  0  0  0  0  0  0  0  0999 V2000
   -0.5525   -1.6951    0.0000 R   0  0  0  0  0  0  0  0  0  0  0  0
   -0.3949   -0.7077    0.0000 N   0  0  0  0  0  0  0  0  0  0  0  0
   -1.1011    0.0003    0.0000 C   0  0  0  0  0  0  0  0  0  0  0  0
   -0.6459    0.8907    0.0000 C   0  0  0  0  0  0  0  0  0  0  0  0
   -1.0989    1.7823    0.0000 O   0  0  0  0  0  0  0  0  0  0  0  0
   -2.0973    1.8359    0.0000 R   0  0  0  0  0  0  0  0  0  0  0  0
    0.3415    0.7331    0.0000 C   0  0  0  0  0  0  0  0  0  0  0  0
    0.4967   -0.2547    0.0000 C   0  0  0  0  0  0  0  0  0  0  0  0
    1.3871   -0.7099    0.0000 C   0  0  0  0  0  0  0  0  0  0  0  0
    1.4385   -1.7085    0.0000 R   0  0  0  0  0  0  0  0  0  0  0  0
    2.2265   -0.1663    0.0000 O   0  0  0  0  0  0  0  0  0  0  0  0
  1  2  1  0
  2  3  1  0
  3  4  1  0
  4  5  1  6
  5  6  1  0
  4  7  1  0
  7  8  1  0
  8  9  1  6
  9 10  1  0
  9 11  2  0
  8  2  1  0
M  ISO  3   1   1   6   3  10   2
V    1 *
V    6 *
V   10 *
M  END
>  <symbol>  (906) 
D_Pro_3OH_c

>  <m_Rgroups>  (906) 
[H],[OH],[H],None,None,None

>  <m_abbr>  (906) 
D_Pro_3OH_c

>  <m_name>  (906) 
D-cis-3-hydroxypyrrolidine-2-carboxylic acid

>  <m_type>  (906) 
aa

>  <m_subtype>  (906) 
modified

>  <m_chem_types>  (906) 
1:backbone_n,2:backbone_c,3:hydroxyl

$$$$

     RDKit          2D

 11 11  0  0  0  0  0  0  0  0999 V2000
   -0.5525   -1.6951    0.0000 R   0  0  0  0  0  0  0  0  0  0  0  0
   -0.3949   -0.7077    0.0000 N   0  0  0  0  0  0  0  0  0  0  0  0
   -1.1011    0.0003    0.0000 C   0  0  0  0  0  0  0  0  0  0  0  0
   -0.6459    0.8907    0.0000 C   0  0  0  0  0  0  0  0  0  0  0  0
   -1.0989    1.7823    0.0000 O   0  0  0  0  0  0  0  0  0  0  0  0
   -2.0973    1.8359    0.0000 R   0  0  0  0  0  0  0  0  0  0  0  0
    0.3415    0.7331    0.0000 C   0  0  0  0  0  0  0  0  0  0  0  0
    0.4967   -0.2547    0.0000 C   0  0  0  0  0  0  0  0  0  0  0  0
    1.3871   -0.7099    0.0000 C   0  0  0  0  0  0  0  0  0  0  0  0
    1.4385   -1.7085    0.0000 R   0  0  0  0  0  0  0  0  0  0  0  0
    2.2265   -0.1663    0.0000 O   0  0  0  0  0  0  0  0  0  0  0  0
  1  2  1  0
  2  3  1  0
  3  4  1  0
  4  5  1  1
  5  6  1  0
  4  7  1  0
  7  8  1  0
  8  9  1  6
  9 10  1  0
  9 11  2  0
  8  2  1  0
M  ISO  3   1   1   6   3  10   2
V    1 *
V    6 *
V   10 *
M  END
>  <symbol>  (907) 
D_Pro_3OH_t

>  <m_Rgroups>  (907) 
[H],[OH],[H],None,None,None

>  <m_abbr>  (907) 
D_Pro_3OH_t

>  <m_name>  (907) 
D-trans-3-hydroxypyrrolidine-2-carboxylic acid

>  <m_type>  (907) 
aa

>  <m_subtype>  (907) 
modified

>  <m_chem_types>  (907) 
1:backbone_n,2:backbone_c,3:hydroxyl

$$$$

     RDKit          2D

 12 12  0  0  0  0  0  0  0  0999 V2000
   -0.8714   -1.8668    0.0000 R   0  0  0  0  0  0  0  0  0  0  0  0
   -0.7186   -0.8786    0.0000 N   0  0  0  0  0  0  0  0  0  0  0  0
   -1.4284   -0.1742    0.0000 C   0  0  0  0  0  0  0  0  0  0  0  0
   -0.9778    0.7186    0.0000 C   0  0  0  0  0  0  0  0  0  0  0  0
   -1.4350    1.6078    0.0000 C   0  0  0  0  0  0  0  0  0  0  0  0
    0.0104    0.5658    0.0000 C   0  0  0  0  0  0  0  0  0  0  0  0
    0.7150    1.2756    0.0000 O   0  0  0  0  0  0  0  0  0  0  0  0
    0.4524    2.2404    0.0000 R   0  0  0  0  0  0  0  0  0  0  0  0
    0.1706   -0.4214    0.0000 C   0  0  0  0  0  0  0  0  0  0  0  0
    1.0632   -0.8720    0.0000 C   0  0  0  0  0  0  0  0  0  0  0  0
    1.1192   -1.8704    0.0000 R   0  0  0  0  0  0  0  0  0  0  0  0
    1.9000   -0.3244    0.0000 O   0  0  0  0  0  0  0  0  0  0  0  0
  1  2  1  0
  2  3  1  0
  3  4  1  0
  4  5  1  0
  4  6  1  0
  6  7  1  0
  7  8  1  0
  6  9  1  0
  9 10  1  6
 10 11  1  0
 10 12  2  0
  9  2  1  0
M  ISO  3   1   1   8   3  11   2
V    1 *
V    8 *
V   11 *
M  END
>  <symbol>  (908) 
D_Pro_4Me3OH

>  <m_Rgroups>  (908) 
[H],[OH],[H],None,None,None

>  <m_abbr>  (908) 
D_Pro_4Me3OH

>  <m_name>  (908) 
D-4-methyl-4-hydroxyproline

>  <m_type>  (908) 
aa

>  <m_subtype>  (908) 
modified

>  <m_chem_types>  (908) 
1:backbone_n,2:backbone_c,3:hydroxyl

$$$$
D_Aze
     RDKit          2D

  8  8  0  0  0  0  0  0  0  0999 V2000
   -1.7473   -1.8123    0.0000 R   0  0  0  0  0  1  0  0  0  0  0  0
   -1.3130   -0.3765    0.0000 N   0  0  0  0  0  0  0  0  0  0  0  0
   -2.0211    0.9458    0.0000 C   0  0  0  0  0  0  0  0  0  0  0  0
   -0.6988    1.6539    0.0000 C   0  0  0  0  0  0  0  0  0  0  0  0
    0.0093    0.3316    0.0000 C   0  0  0  0  0  0  0  0  0  0  0  0
    1.4451   -0.1027    0.0000 C   0  0  0  0  0  0  0  0  0  0  0  0
    1.7868   -1.5633    0.0000 R   0  0  0  0  0  1  0  0  0  0  0  0
    2.5391    0.9235    0.0000 O   0  0  0  0  0  0  0  0  0  0  0  0
  1  2  1  0
  2  3  1  0
  3  4  1  0
  4  5  1  0
  5  6  1  6
  6  7  1  0
  6  8  2  0
  5  2  1  0
M  ISO  2   1   1   7   2
M  END

>  <symbol>  (909) 
D_Aze

>  <m_Rgroups>  (909) 
[H],[OH],None,None,None,None

>  <m_abbr>  (909) 
D_Aze

>  <m_name>  (909) 
D-azetidine-2-carboxylic acid

>  <m_type>  (909) 
aa

>  <m_subtype>  (909) 
modified

>  <m_chem_types>  (909) 
1:backbone_n,2:backbone_c

$$$$

     RDKit          2D

 17 17  0  0  0  0  0  0  0  0999 V2000
   -1.3634   -3.3283    0.0000 R   0  0  0  0  0  0  0  0  0  0  0  0
   -1.3670   -2.3283    0.0000 N   0  0  0  0  0  0  0  0  0  0  0  0
   -2.2348   -1.8315    0.0000 R   0  0  0  0  0  0  0  0  0  0  0  0
   -0.5028   -1.8253    0.0000 C   0  0  0  0  0  0  0  0  0  0  0  0
   -0.5064   -0.8253    0.0000 C   0  0  0  0  0  0  0  0  0  0  0  0
    0.3578   -0.3223    0.0000 C   0  0  0  0  0  0  0  0  0  0  0  0
    0.3542    0.6777    0.0000 C   0  0  0  0  0  0  0  0  0  0  0  0
   -0.5138    1.1745    0.0000 C   0  0  0  0  0  0  0  0  0  0  0  0
   -0.5172    2.1745    0.0000 C   0  0  0  0  0  0  0  0  0  0  0  0
    0.3470    2.6777    0.0000 C   0  0  0  0  0  0  0  0  0  0  0  0
    0.3434    3.6777    0.0000 O   0  0  0  0  0  0  0  0  0  0  0  0
    1.2076    4.1807    0.0000 R   0  0  0  0  0  0  0  0  0  0  0  0
    1.2148    2.1809    0.0000 C   0  0  0  0  0  0  0  0  0  0  0  0
    1.2182    1.1809    0.0000 C   0  0  0  0  0  0  0  0  0  0  0  0
    0.3650   -2.3221    0.0000 C   0  0  0  0  0  0  0  0  0  0  0  0
    0.3686   -3.3221    0.0000 R   0  0  0  0  0  0  0  0  0  0  0  0
    1.2292   -1.8191    0.0000 O   0  0  0  0  0  0  0  0  0  0  0  0
  1  2  1  0
  2  3  1  0
  2  4  1  0
  4  5  1  1
  5  6  1  0
  6  7  1  0
  7  8  1  0
  8  9  2  0
  9 10  1  0
 10 11  1  0
 11 12  1  0
 10 13  2  0
 13 14  1  0
  4 15  1  0
 15 16  1  0
 15 17  2  0
 14  7  2  0
M  ISO  4   1   1   3   3  12   4  16   2
V    1 *
V    3 *
V   12 *
V   16 *
M  END
>  <symbol>  (910) 
hTyr

>  <m_Rgroups>  (910) 
[H],[OH],[H],[H],None,None

>  <m_abbr>  (910) 
hTyr

>  <m_name>  (910) 
L-homotyrosine

>  <m_type>  (910) 
aa

>  <m_subtype>  (910) 
modified

>  <m_chem_types>  (910) 
1:backbone_n,2:backbone_c,3:backbone_n_mod,4:hydroxyl

$$$$

     RDKit          2D

 17 17  0  0  0  0  0  0  0  0999 V2000
   -1.3634   -3.3283    0.0000 R   0  0  0  0  0  0  0  0  0  0  0  0
   -1.3670   -2.3283    0.0000 N   0  0  0  0  0  0  0  0  0  0  0  0
   -2.2348   -1.8315    0.0000 R   0  0  0  0  0  0  0  0  0  0  0  0
   -0.5028   -1.8253    0.0000 C   0  0  0  0  0  0  0  0  0  0  0  0
   -0.5064   -0.8253    0.0000 C   0  0  0  0  0  0  0  0  0  0  0  0
    0.3578   -0.3223    0.0000 C   0  0  0  0  0  0  0  0  0  0  0  0
    0.3542    0.6777    0.0000 C   0  0  0  0  0  0  0  0  0  0  0  0
   -0.5138    1.1745    0.0000 C   0  0  0  0  0  0  0  0  0  0  0  0
   -0.5172    2.1745    0.0000 C   0  0  0  0  0  0  0  0  0  0  0  0
    0.3470    2.6777    0.0000 C   0  0  0  0  0  0  0  0  0  0  0  0
    0.3434    3.6777    0.0000 O   0  0  0  0  0  0  0  0  0  0  0  0
    1.2076    4.1807    0.0000 R   0  0  0  0  0  0  0  0  0  0  0  0
    1.2148    2.1809    0.0000 C   0  0  0  0  0  0  0  0  0  0  0  0
    1.2182    1.1809    0.0000 C   0  0  0  0  0  0  0  0  0  0  0  0
    0.3650   -2.3221    0.0000 C   0  0  0  0  0  0  0  0  0  0  0  0
    0.3686   -3.3221    0.0000 R   0  0  0  0  0  0  0  0  0  0  0  0
    1.2292   -1.8191    0.0000 O   0  0  0  0  0  0  0  0  0  0  0  0
  1  2  1  0
  2  3  1  0
  2  4  1  0
  4  5  1  6
  5  6  1  0
  6  7  1  0
  7  8  1  0
  8  9  2  0
  9 10  1  0
 10 11  1  0
 11 12  1  0
 10 13  2  0
 13 14  1  0
  4 15  1  0
 15 16  1  0
 15 17  2  0
 14  7  2  0
M  ISO  4   1   1   3   3  12   4  16   2
V    1 *
V    3 *
V   12 *
V   16 *
M  END
>  <symbol>  (911) 
D_hTyr

>  <m_Rgroups>  (911) 
[H],[OH],[H],[H],None,None

>  <m_abbr>  (911) 
D_hTyr

>  <m_name>  (911) 
D-homotyrosine

>  <m_type>  (911) 
aa

>  <m_subtype>  (911) 
modified

>  <m_chem_types>  (911) 
1:backbone_n,2:backbone_c,3:backbone_n_mod,4:hydroxyl

$$$$

     RDKit          2D

 19 20  0  0  0  0  0  0  0  0999 V2000
   -0.7166   -3.3901    0.0000 R   0  0  0  0  0  0  0  0  0  0  0  0
   -0.7132   -2.3903    0.0000 N   0  0  0  0  0  0  0  0  0  0  0  0
   -1.5776   -1.8875    0.0000 R   0  0  0  0  0  0  0  0  0  0  0  0
    0.1544   -1.8931    0.0000 C   0  0  0  0  0  0  0  0  0  0  0  0
    0.1578   -0.8931    0.0000 C   0  0  0  0  0  0  0  0  0  0  0  0
   -0.7066   -0.3901    0.0000 C   0  0  0  0  0  0  0  0  0  0  0  0
   -0.7034    0.6095    0.0000 C   0  0  0  0  0  0  0  0  0  0  0  0
   -1.5102    1.2003    0.0000 C   0  0  0  0  0  0  0  0  0  0  0  0
   -1.1982    2.1503    0.0000 N   0  0  0  0  0  0  0  0  0  0  0  0
   -1.7830    2.9611    0.0000 R   0  0  0  0  0  0  0  0  0  0  0  0
   -0.1982    2.1469    0.0000 C   0  0  0  0  0  0  0  0  0  0  0  0
    0.4736    2.8877    0.0000 C   0  0  0  0  0  0  0  0  0  0  0  0
    1.4510    2.6765    0.0000 C   0  0  0  0  0  0  0  0  0  0  0  0
    1.7568    1.7245    0.0000 C   0  0  0  0  0  0  0  0  0  0  0  0
    1.0850    0.9837    0.0000 C   0  0  0  0  0  0  0  0  0  0  0  0
    0.1078    1.1947    0.0000 C   0  0  0  0  0  0  0  0  0  0  0  0
    1.0188   -2.3961    0.0000 C   0  0  0  0  0  0  0  0  0  0  0  0
    1.0156   -3.3959    0.0000 R   0  0  0  0  0  0  0  0  0  0  0  0
    1.8866   -1.8989    0.0000 O   0  0  0  0  0  0  0  0  0  0  0  0
  1  2  1  0
  2  3  1  0
  2  4  1  0
  4  5  1  6
  5  6  1  0
  6  7  1  0
  7  8  2  0
  8  9  1  0
  9 10  1  0
  9 11  1  0
 11 12  2  0
 12 13  1  0
 13 14  2  0
 14 15  1  0
 15 16  2  0
  4 17  1  0
 17 18  1  0
 17 19  2  0
 16  7  1  0
 16 11  1  0
M  ISO  4   1   1   3   3  10   4  18   2
V    1 *
V    3 *
V   10 *
V   18 *
M  END
>  <symbol>  (912) 
D_hTrp

>  <m_Rgroups>  (912) 
[H],[OH],[H],[H],None,None

>  <m_abbr>  (912) 
D_hTrp

>  <m_name>  (912) 
D-homotryptophan

>  <m_type>  (912) 
aa

>  <m_subtype>  (912) 
modified

>  <m_chem_types>  (912) 
1:backbone_n,2:backbone_c,3:backbone_n_mod,4:aromatic_nh

$$$$

     RDKit          2D

 15 15  0  0  0  0  0  0  0  0999 V2000
   -1.3333   -2.8443    0.0000 R   0  0  0  0  0  0  0  0  0  0  0  0
   -1.3365   -1.8443    0.0000 N   0  0  0  0  0  0  0  0  0  0  0  0
   -2.2041   -1.3469    0.0000 R   0  0  0  0  0  0  0  0  0  0  0  0
   -0.4723   -1.3415    0.0000 C   0  0  0  0  0  0  0  0  0  0  0  0
   -0.4755   -0.3415    0.0000 C   0  0  0  0  0  0  0  0  0  0  0  0
    0.3889    0.1611    0.0000 C   0  0  0  0  0  0  0  0  0  0  0  0
    0.3857    1.1611    0.0000 C   0  0  0  0  0  0  0  0  0  0  0  0
    1.1927    1.7515    0.0000 C   0  0  0  0  0  0  0  0  0  0  0  0
    0.8805    2.7017    0.0000 N   0  0  0  0  0  0  0  0  0  0  0  0
    1.4657    3.5125    0.0000 R   0  0  0  0  0  0  0  0  0  0  0  0
   -0.1193    2.6981    0.0000 C   0  0  0  0  0  0  0  0  0  0  0  0
   -0.4255    1.7463    0.0000 N   0  0  0  0  0  0  0  0  0  0  0  0
    0.3953   -1.8389    0.0000 C   0  0  0  0  0  0  0  0  0  0  0  0
    0.3987   -2.8389    0.0000 R   0  0  0  0  0  0  0  0  0  0  0  0
    1.2597   -1.3361    0.0000 O   0  0  0  0  0  0  0  0  0  0  0  0
  1  2  1  0
  2  3  1  0
  2  4  1  0
  4  5  1  6
  5  6  1  0
  6  7  1  0
  7  8  2  0
  8  9  1  0
  9 10  1  0
  9 11  1  0
 11 12  2  0
  4 13  1  0
 13 14  1  0
 13 15  2  0
 12  7  1  0
M  ISO  4   1   1   3   3  10   4  14   2
V    1 *
V    3 *
V   10 *
V   14 *
M  END
>  <symbol>  (913) 
D_hHis

>  <m_Rgroups>  (913) 
[H],[OH],[H],[H],None,None

>  <m_abbr>  (913) 
D_hHis

>  <m_name>  (913) 
D-homohistidine

>  <m_type>  (913) 
aa

>  <m_subtype>  (913) 
modified

>  <m_chem_types>  (913) 
1:backbone_n,2:backbone_c,3:backbone_n_mod,4:aromatic_nh

$$$$

     RDKit          2D

 12 11  0  0  0  0  0  0  0  0999 V2000
   -1.2952    1.9193    0.0000 R   0  0  0  0  0  0  0  0  0  0  0  0
   -1.2972    0.9193    0.0000 N   0  0  0  0  0  0  0  0  0  0  0  0
   -2.1642    0.4211    0.0000 R   0  0  0  0  0  0  0  0  0  0  0  0
   -0.4322    0.4175    0.0000 C   0  0  0  0  0  0  0  0  0  0  0  0
   -0.4342   -0.5825    0.0000 C   0  0  0  0  0  0  0  0  0  0  0  0
    0.4308   -1.0841    0.0000 C   0  0  0  0  0  0  0  0  0  0  0  0
    1.2978   -0.5859    0.0000 C   0  0  0  0  0  0  0  0  0  0  0  0
    0.4288   -2.0841    0.0000 O   0  0  0  0  0  0  0  0  0  0  0  0
    1.2938   -2.5859    0.0000 R   0  0  0  0  0  0  0  0  0  0  0  0
    0.4348    0.9159    0.0000 C   0  0  0  0  0  0  0  0  0  0  0  0
    1.2998    0.4141    0.0000 R   0  0  0  0  0  0  0  0  0  0  0  0
    0.4368    1.9157    0.0000 O   0  0  0  0  0  0  0  0  0  0  0  0
  1  2  1  0
  2  3  1  0
  2  4  1  0
  4  5  1  6
  5  6  1  0
  6  7  1  1
  6  8  1  0
  8  9  1  0
  4 10  1  0
 10 11  1  0
 10 12  2  0
M  ISO  4   1   1   3   3   9   4  11   2
V    1 *
V    3 *
V    9 *
V   11 *
M  END
>  <symbol>  (914) 
hThr

>  <m_Rgroups>  (914) 
[H],[OH],[H],[H],None,None

>  <m_abbr>  (914) 
hThr

>  <m_name>  (914) 
L-homothreonine

>  <m_type>  (914) 
aa

>  <m_subtype>  (914) 
modified

>  <m_chem_types>  (914) 
1:backbone_n,2:backbone_c,3:backbone_n_mod,4:hydroxyl

$$$$

     RDKit          2D

 12 11  0  0  0  0  0  0  0  0999 V2000
   -1.2952    1.9193    0.0000 R   0  0  0  0  0  0  0  0  0  0  0  0
   -1.2972    0.9193    0.0000 N   0  0  0  0  0  0  0  0  0  0  0  0
   -2.1642    0.4211    0.0000 R   0  0  0  0  0  0  0  0  0  0  0  0
   -0.4322    0.4175    0.0000 C   0  0  0  0  0  0  0  0  0  0  0  0
   -0.4342   -0.5825    0.0000 C   0  0  0  0  0  0  0  0  0  0  0  0
    0.4308   -1.0841    0.0000 C   0  0  0  0  0  0  0  0  0  0  0  0
    1.2978   -0.5859    0.0000 C   0  0  0  0  0  0  0  0  0  0  0  0
    0.4288   -2.0841    0.0000 O   0  0  0  0  0  0  0  0  0  0  0  0
    1.2938   -2.5859    0.0000 R   0  0  0  0  0  0  0  0  0  0  0  0
    0.4348    0.9159    0.0000 C   0  0  0  0  0  0  0  0  0  0  0  0
    1.2998    0.4141    0.0000 R   0  0  0  0  0  0  0  0  0  0  0  0
    0.4368    1.9157    0.0000 O   0  0  0  0  0  0  0  0  0  0  0  0
  1  2  1  0
  2  3  1  0
  2  4  1  0
  4  5  1  1
  5  6  1  0
  6  7  1  1
  6  8  1  0
  8  9  1  0
  4 10  1  0
 10 11  1  0
 10 12  2  0
M  ISO  4   1   1   3   3   9   4  11   2
V    1 *
V    3 *
V    9 *
V   11 *
M  END
>  <symbol>  (915) 
D_hThr

>  <m_Rgroups>  (915) 
[H],[OH],[H],[H],None,None

>  <m_abbr>  (915) 
D_hThr

>  <m_name>  (915) 
D-homothreonine

>  <m_type>  (915) 
aa

>  <m_subtype>  (915) 
modified

>  <m_chem_types>  (915) 
1:backbone_n,2:backbone_c,3:backbone_n_mod,4:hydroxyl

$$$$

     RDKit          2D

 15 15  0  0  0  0  0  0  0  0999 V2000
   -1.2600   -2.8045    0.0000 R   0  0  0  0  0  0  0  0  0  0  0  0
   -1.2636   -1.8045    0.0000 N   0  0  0  0  0  0  0  0  0  0  0  0
   -2.1314   -1.3075    0.0000 R   0  0  0  0  0  0  0  0  0  0  0  0
   -0.3994   -1.3013    0.0000 C   0  0  0  0  0  0  0  0  0  0  0  0
   -0.4030   -0.3015    0.0000 C   0  0  0  0  0  0  0  0  0  0  0  0
    0.4612    0.2017    0.0000 C   0  0  0  0  0  0  0  0  0  0  0  0
    0.4576    1.2015    0.0000 C   0  0  0  0  0  0  0  0  0  0  0  0
   -0.4104    1.6985    0.0000 C   0  0  0  0  0  0  0  0  0  0  0  0
   -0.4138    2.6985    0.0000 C   0  0  0  0  0  0  0  0  0  0  0  0
    0.4504    3.2017    0.0000 C   0  0  0  0  0  0  0  0  0  0  0  0
    1.3182    2.7047    0.0000 C   0  0  0  0  0  0  0  0  0  0  0  0
    1.3216    1.7047    0.0000 C   0  0  0  0  0  0  0  0  0  0  0  0
    0.4684   -1.7983    0.0000 C   0  0  0  0  0  0  0  0  0  0  0  0
    0.4720   -2.7983    0.0000 R   0  0  0  0  0  0  0  0  0  0  0  0
    1.3326   -1.2951    0.0000 O   0  0  0  0  0  0  0  0  0  0  0  0
  1  2  1  0
  2  3  1  0
  2  4  1  0
  4  5  1  1
  5  6  1  0
  6  7  1  0
  7  8  1  0
  8  9  1  0
  9 10  1  0
 10 11  1  0
 11 12  1  0
  4 13  1  0
 13 14  1  0
 13 15  2  0
 12  7  1  0
M  ISO  3   1   1   3   3  14   2
V    1 *
V    3 *
V   14 *
M  END
>  <symbol>  (916) 
hCha

>  <m_Rgroups>  (916) 
[H],[OH],[H],None,None,None

>  <m_abbr>  (916) 
hCha

>  <m_name>  (916) 
L-homo-cyclohexylalanine

>  <m_type>  (916) 
aa

>  <m_subtype>  (916) 
modified

>  <m_chem_types>  (916) 
1:backbone_n,2:backbone_c,3:backbone_n_mod

$$$$

     RDKit          2D

 15 15  0  0  0  0  0  0  0  0999 V2000
   -1.2600   -2.8045    0.0000 R   0  0  0  0  0  0  0  0  0  0  0  0
   -1.2636   -1.8045    0.0000 N   0  0  0  0  0  0  0  0  0  0  0  0
   -2.1314   -1.3075    0.0000 R   0  0  0  0  0  0  0  0  0  0  0  0
   -0.3994   -1.3013    0.0000 C   0  0  0  0  0  0  0  0  0  0  0  0
   -0.4030   -0.3015    0.0000 C   0  0  0  0  0  0  0  0  0  0  0  0
    0.4612    0.2017    0.0000 C   0  0  0  0  0  0  0  0  0  0  0  0
    0.4576    1.2015    0.0000 C   0  0  0  0  0  0  0  0  0  0  0  0
   -0.4104    1.6985    0.0000 C   0  0  0  0  0  0  0  0  0  0  0  0
   -0.4138    2.6985    0.0000 C   0  0  0  0  0  0  0  0  0  0  0  0
    0.4504    3.2017    0.0000 C   0  0  0  0  0  0  0  0  0  0  0  0
    1.3182    2.7047    0.0000 C   0  0  0  0  0  0  0  0  0  0  0  0
    1.3216    1.7047    0.0000 C   0  0  0  0  0  0  0  0  0  0  0  0
    0.4684   -1.7983    0.0000 C   0  0  0  0  0  0  0  0  0  0  0  0
    0.4720   -2.7983    0.0000 R   0  0  0  0  0  0  0  0  0  0  0  0
    1.3326   -1.2951    0.0000 O   0  0  0  0  0  0  0  0  0  0  0  0
  1  2  1  0
  2  3  1  0
  2  4  1  0
  4  5  1  6
  5  6  1  0
  6  7  1  0
  7  8  1  0
  8  9  1  0
  9 10  1  0
 10 11  1  0
 11 12  1  0
  4 13  1  0
 13 14  1  0
 13 15  2  0
 12  7  1  0
M  ISO  3   1   1   3   3  14   2
V    1 *
V    3 *
V   14 *
M  END
>  <symbol>  (917) 
D_hCha

>  <m_Rgroups>  (917) 
[H],[OH],[H],None,None,None

>  <m_abbr>  (917) 
D_hCha

>  <m_name>  (917) 
D-homo-cyclohexylalanine

>  <m_type>  (917) 
aa

>  <m_subtype>  (917) 
modified

>  <m_chem_types>  (917) 
1:backbone_n,2:backbone_c,3:backbone_n_mod

$$$$

     RDKit          2D

  9  8  0  0  0  0  0  0  0  0999 V2000
    2.1170    0.1095    0.0000 R   0  0  0  0  0  0  0  0  0  0  0  0
    1.2506   -0.3899    0.0000 N   0  0  0  0  0  0  0  0  0  0  0  0
    1.2498   -1.3899    0.0000 R   0  0  0  0  0  0  0  0  0  0  0  0
    0.3850    0.1107    0.0000 C   0  0  0  0  0  0  0  0  0  0  0  0
    0.3858    1.1107    0.0000 C   0  0  0  0  0  0  0  0  0  0  0  0
   -0.4814   -0.3885    0.0000 C   0  0  0  0  0  0  0  0  0  0  0  0
   -1.3470    0.1121    0.0000 C   0  0  0  0  0  0  0  0  0  0  0  0
   -2.2134   -0.3871    0.0000 R   0  0  0  0  0  0  0  0  0  0  0  0
   -1.3462    1.1121    0.0000 O   0  0  0  0  0  0  0  0  0  0  0  0
  1  2  1  0
  2  3  1  0
  2  4  1  0
  4  5  1  6
  4  6  1  0
  6  7  1  0
  7  8  1  0
  7  9  2  0
M  ISO  3   1   1   3   3   8   2
V    1 *
V    3 *
V    8 *
M  END
>  <symbol>  (918) 
bAbu

>  <m_Rgroups>  (918) 
[H],[OH],[H],None,None,None

>  <m_abbr>  (918) 
bAbu

>  <m_name>  (918) 
L-3-aminobutyric acid (beta-aminobutyric acid)

>  <m_type>  (918) 
aa

>  <m_subtype>  (918) 
modified

>  <m_chem_types>  (918) 
1:backbone_n,2:backbone_c,3:backbone_n_mod

$$$$

     RDKit          2D

 13 12  0  0  0  0  0  0  0  0999 V2000
   -0.7205   -1.7427    0.0000 R   0  0  0  0  0  0  0  0  0  0  0  0
   -0.4661   -0.7757    0.0000 N   0  0  0  0  0  0  0  0  0  0  0  0
   -1.1765   -0.0719    0.0000 R   0  0  0  0  0  0  0  0  0  0  0  0
    0.4987   -0.5125    0.0000 C   0  0  0  0  0  0  0  0  0  0  0  0
    0.2443   -1.4795    0.0000 C   0  0  0  0  0  0  0  0  0  0  0  0
    0.2353    0.4523    0.0000 C   0  0  0  0  0  0  0  0  0  0  0  0
   -0.7317    0.7065    0.0000 C   0  0  0  0  0  0  0  0  0  0  0  0
   -0.9949    1.6713    0.0000 C   0  0  0  0  0  0  0  0  0  0  0  0
   -1.9621    1.9257    0.0000 R   0  0  0  0  0  0  0  0  0  0  0  0
   -0.2911    2.3817    0.0000 C   0  0  0  0  0  0  0  0  0  0  0  0
    1.4657   -0.7669    0.0000 C   0  0  0  0  0  0  0  0  0  0  0  0
    1.7289   -1.7315    0.0000 R   0  0  0  0  0  0  0  0  0  0  0  0
    2.1695   -0.0565    0.0000 O   0  0  0  0  0  0  0  0  0  0  0  0
  1  2  1  0
  2  3  1  0
  2  4  1  0
  4  5  1  6
  4  6  1  0
  6  7  1  0
  7  8  1  0
  8  9  1  0
  8 10  2  0
  4 11  1  0
 11 12  1  0
 11 13  2  0
M  ISO  4   1   1   3   3   9   4  12   2
V    1 *
V    3 *
V    9 *
V   12 *
M  END
>  <symbol>  (919) 
S4

>  <m_Rgroups>  (919) 
[H],[OH],[H],[H],None,None

>  <m_abbr>  (919) 
S4

>  <m_name>  (919) 
(S)-alpha-methyl-4-pentenylglycine (RCM staple)

>  <m_type>  (919) 
aa

>  <m_subtype>  (919) 
modified

>  <m_chem_types>  (919) 
1:backbone_n,2:backbone_c,3:backbone_n_mod

$$$$

     RDKit          2D

 13 12  0  0  0  0  0  0  0  0999 V2000
   -0.7205   -1.7427    0.0000 R   0  0  0  0  0  0  0  0  0  0  0  0
   -0.4661   -0.7757    0.0000 N   0  0  0  0  0  0  0  0  0  0  0  0
   -1.1765   -0.0719    0.0000 R   0  0  0  0  0  0  0  0  0  0  0  0
    0.4987   -0.5125    0.0000 C   0  0  0  0  0  0  0  0  0  0  0  0
    0.2443   -1.4795    0.0000 C   0  0  0  0  0  0  0  0  0  0  0  0
    0.2353    0.4523    0.0000 C   0  0  0  0  0  0  0  0  0  0  0  0
   -0.7317    0.7065    0.0000 C   0  0  0  0  0  0  0  0  0  0  0  0
   -0.9949    1.6713    0.0000 C   0  0  0  0  0  0  0  0  0  0  0  0
   -1.9621    1.9257    0.0000 R   0  0  0  0  0  0  0  0  0  0  0  0
   -0.2911    2.3817    0.0000 C   0  0  0  0  0  0  0  0  0  0  0  0
    1.4657   -0.7669    0.0000 C   0  0  0  0  0  0  0  0  0  0  0  0
    1.7289   -1.7315    0.0000 R   0  0  0  0  0  0  0  0  0  0  0  0
    2.1695   -0.0565    0.0000 O   0  0  0  0  0  0  0  0  0  0  0  0
  1  2  1  0
  2  3  1  0
  2  4  1  0
  4  5  1  1
  4  6  1  0
  6  7  1  0
  7  8  1  0
  8  9  1  0
  8 10  2  0
  4 11  1  0
 11 12  1  0
 11 13  2  0
M  ISO  4   1   1   3   3   9   4  12   2
V    1 *
V    3 *
V    9 *
V   12 *
M  END
>  <symbol>  (920) 
R4

>  <m_Rgroups>  (920) 
[H],[OH],[H],[H],None,None

>  <m_abbr>  (920) 
R4

>  <m_name>  (920) 
(R)-alpha-methyl-4-pentenylglycine (RCM staple)

>  <m_type>  (920) 
aa

>  <m_subtype>  (920) 
modified

>  <m_chem_types>  (920) 
1:backbone_n,2:backbone_c,3:backbone_n_mod

$$$$

     RDKit          2D

 15 14  0  0  0  0  0  0  0  0999 V2000
   -0.2773   -2.2263    0.0000 R   0  0  0  0  0  0  0  0  0  0  0  0
   -0.0229   -1.2593    0.0000 N   0  0  0  0  0  0  0  0  0  0  0  0
   -0.7333   -0.5555    0.0000 R   0  0  0  0  0  0  0  0  0  0  0  0
    0.9419   -0.9961    0.0000 C   0  0  0  0  0  0  0  0  0  0  0  0
    0.6875   -1.9631    0.0000 C   0  0  0  0  0  0  0  0  0  0  0  0
    0.6785   -0.0313    0.0000 C   0  0  0  0  0  0  0  0  0  0  0  0
   -0.2885    0.2231    0.0000 C   0  0  0  0  0  0  0  0  0  0  0  0
   -0.5517    1.1877    0.0000 C   0  0  0  0  0  0  0  0  0  0  0  0
   -1.5189    1.4421    0.0000 C   0  0  0  0  0  0  0  0  0  0  0  0
   -1.7821    2.4067    0.0000 C   0  0  0  0  0  0  0  0  0  0  0  0
   -2.7491    2.6611    0.0000 R   0  0  0  0  0  0  0  0  0  0  0  0
   -1.0783    3.1171    0.0000 C   0  0  0  0  0  0  0  0  0  0  0  0
    1.9089   -1.2505    0.0000 C   0  0  0  0  0  0  0  0  0  0  0  0
    2.1721   -2.2151    0.0000 R   0  0  0  0  0  0  0  0  0  0  0  0
    2.6127   -0.5401    0.0000 O   0  0  0  0  0  0  0  0  0  0  0  0
  1  2  1  0
  2  3  1  0
  2  4  1  0
  4  5  1  6
  4  6  1  0
  6  7  1  0
  7  8  1  0
  8  9  1  0
  9 10  1  0
 10 11  1  0
 10 12  2  0
  4 13  1  0
 13 14  1  0
 13 15  2  0
M  ISO  4   1   1   3   3  11   4  14   2
V    1 *
V    3 *
V   11 *
V   14 *
M  END
>  <symbol>  (921) 
S6

>  <m_Rgroups>  (921) 
[H],[OH],[H],[H],None,None

>  <m_abbr>  (921) 
S6

>  <m_name>  (921) 
(S)-alpha-methyl-6-heptenylglycine (RCM staple)

>  <m_type>  (921) 
aa

>  <m_subtype>  (921) 
modified

>  <m_chem_types>  (921) 
1:backbone_n,2:backbone_c,3:backbone_n_mod

$$$$

     RDKit          2D

 15 14  0  0  0  0  0  0  0  0999 V2000
   -0.2773   -2.2263    0.0000 R   0  0  0  0  0  0  0  0  0  0  0  0
   -0.0229   -1.2593    0.0000 N   0  0  0  0  0  0  0  0  0  0  0  0
   -0.7333   -0.5555    0.0000 R   0  0  0  0  0  0  0  0  0  0  0  0
    0.9419   -0.9961    0.0000 C   0  0  0  0  0  0  0  0  0  0  0  0
    0.6875   -1.9631    0.0000 C   0  0  0  0  0  0  0  0  0  0  0  0
    0.6785   -0.0313    0.0000 C   0  0  0  0  0  0  0  0  0  0  0  0
   -0.2885    0.2231    0.0000 C   0  0  0  0  0  0  0  0  0  0  0  0
   -0.5517    1.1877    0.0000 C   0  0  0  0  0  0  0  0  0  0  0  0
   -1.5189    1.4421    0.0000 C   0  0  0  0  0  0  0  0  0  0  0  0
   -1.7821    2.4067    0.0000 C   0  0  0  0  0  0  0  0  0  0  0  0
   -2.7491    2.6611    0.0000 R   0  0  0  0  0  0  0  0  0  0  0  0
   -1.0783    3.1171    0.0000 C   0  0  0  0  0  0  0  0  0  0  0  0
    1.9089   -1.2505    0.0000 C   0  0  0  0  0  0  0  0  0  0  0  0
    2.1721   -2.2151    0.0000 R   0  0  0  0  0  0  0  0  0  0  0  0
    2.6127   -0.5401    0.0000 O   0  0  0  0  0  0  0  0  0  0  0  0
  1  2  1  0
  2  3  1  0
  2  4  1  0
  4  5  1  1
  4  6  1  0
  6  7  1  0
  7  8  1  0
  8  9  1  0
  9 10  1  0
 10 11  1  0
 10 12  2  0
  4 13  1  0
 13 14  1  0
 13 15  2  0
M  ISO  4   1   1   3   3  11   4  14   2
V    1 *
V    3 *
V   11 *
V   14 *
M  END
>  <symbol>  (922) 
R6

>  <m_Rgroups>  (922) 
[H],[OH],[H],[H],None,None

>  <m_abbr>  (922) 
R6

>  <m_name>  (922) 
(R)-alpha-methyl-6-heptenylglycine (RCM staple)

>  <m_type>  (922) 
aa

>  <m_subtype>  (922) 
modified

>  <m_chem_types>  (922) 
1:backbone_n,2:backbone_c,3:backbone_n_mod

$$$$

     RDKit          2D

 10  9  0  0  0  0  0  0  0  0999 V2000
    3.2050   -0.3436    0.0000 R   0  0  0  0  0  0  0  0  0  0  0  0
    2.3380    0.1546    0.0000 C   0  0  0  0  0  0  0  0  0  0  0  0
    2.3360    1.1546    0.0000 O   0  0  0  0  0  0  0  0  0  0  0  0
    1.4730   -0.3470    0.0000 C   0  0  0  0  0  0  0  0  0  0  0  0
    0.6060    0.1512    0.0000 C   0  0  0  0  0  0  0  0  0  0  0  0
   -0.2590   -0.3506    0.0000 C   0  0  0  0  0  0  0  0  0  0  0  0
   -1.1262    0.1478    0.0000 C   0  0  0  0  0  0  0  0  0  0  0  0
   -1.9912   -0.3540    0.0000 C   0  0  0  0  0  0  0  0  0  0  0  0
   -2.8582    0.1444    0.0000 C   0  0  0  0  0  0  0  0  0  0  0  0
   -3.7232   -0.3574    0.0000 C   0  0  0  0  0  0  0  0  0  0  0  0
  1  2  1  0
  2  3  2  0
  2  4  1  0
  4  5  1  0
  5  6  1  0
  6  7  1  0
  7  8  1  0
  8  9  1  0
  9 10  1  0
M  ISO  1   1   2
V    1 *
M  END
>  <symbol>  (923) 
OctCap

>  <m_Rgroups>  (923) 
None,[OH],None,None,None,None

>  <m_abbr>  (923) 
OctCap

>  <m_name>  (923) 
Octanoyl cap (C8)

>  <m_type>  (923) 
cap

>  <m_subtype>  (923) 
cap

>  <m_chem_types>  (923) 
2:backbone_c

$$$$

     RDKit          2D

 12 11  0  0  0  0  0  0  0  0999 V2000
    4.0421   -0.3252    0.0000 R   0  0  0  0  0  0  0  0  0  0  0  0
    3.1751    0.1730    0.0000 C   0  0  0  0  0  0  0  0  0  0  0  0
    3.1731    1.1730    0.0000 O   0  0  0  0  0  0  0  0  0  0  0  0
    2.3101   -0.3288    0.0000 C   0  0  0  0  0  0  0  0  0  0  0  0
    1.4429    0.1696    0.0000 C   0  0  0  0  0  0  0  0  0  0  0  0
    0.5779   -0.3322    0.0000 C   0  0  0  0  0  0  0  0  0  0  0  0
   -0.2891    0.1660    0.0000 C   0  0  0  0  0  0  0  0  0  0  0  0
   -1.1541   -0.3356    0.0000 C   0  0  0  0  0  0  0  0  0  0  0  0
   -2.0211    0.1626    0.0000 C   0  0  0  0  0  0  0  0  0  0  0  0
   -2.8861   -0.3390    0.0000 C   0  0  0  0  0  0  0  0  0  0  0  0
   -3.7531    0.1592    0.0000 C   0  0  0  0  0  0  0  0  0  0  0  0
   -4.6181   -0.3426    0.0000 C   0  0  0  0  0  0  0  0  0  0  0  0
  1  2  1  0
  2  3  2  0
  2  4  1  0
  4  5  1  0
  5  6  1  0
  6  7  1  0
  7  8  1  0
  8  9  1  0
  9 10  1  0
 10 11  1  0
 11 12  1  0
M  ISO  1   1   2
V    1 *
M  END
>  <symbol>  (924) 
DecCap

>  <m_Rgroups>  (924) 
None,[OH],None,None,None,None

>  <m_abbr>  (924) 
DecCap

>  <m_name>  (924) 
Decanoyl cap (C10)

>  <m_type>  (924) 
cap

>  <m_subtype>  (924) 
cap

>  <m_chem_types>  (924) 
2:backbone_c

$$$$

     RDKit          2D

  7  6  0  0  0  0  0  0  0  0999 V2000
   -1.7333   -0.5679    0.0000 R   0  0  0  0  0  0  0  0  0  0  0  0
   -0.8661   -0.0697    0.0000 C   0  0  0  0  0  0  0  0  0  0  0  0
   -0.8641    0.9303    0.0000 O   0  0  0  0  0  0  0  0  0  0  0  0
   -0.0011   -0.5713    0.0000 C   0  0  0  0  0  0  0  0  0  0  0  0
    0.8659   -0.0731    0.0000 C   0  0  0  0  0  0  0  0  0  0  0  0
    1.7309   -0.5749    0.0000 C   0  0  0  0  0  0  0  0  0  0  0  0
    0.8679    0.9269    0.0000 C   0  0  0  0  0  0  0  0  0  0  0  0
  1  2  1  0
  2  3  2  0
  2  4  1  0
  4  5  1  0
  5  6  1  0
  5  7  1  0
M  ISO  1   1   2
V    1 *
M  END
>  <symbol>  (925) 
IsoButCap

>  <m_Rgroups>  (925) 
None,[OH],None,None,None,None

>  <m_abbr>  (925) 
IsoButCap

>  <m_name>  (925) 
3-methylbutanoyl (isovaleryl) cap

>  <m_type>  (925) 
cap

>  <m_subtype>  (925) 
cap

>  <m_chem_types>  (925) 
2:backbone_c

$$$$

     RDKit          2D

  7  6  0  0  0  0  0  0  0  0999 V2000
   -1.3612   -0.1070    0.0000 R   0  0  0  0  0  0  0  0  0  0  0  0
   -0.4942    0.3914    0.0000 C   0  0  0  0  0  0  0  0  0  0  0  0
   -0.4920    1.3912    0.0000 O   0  0  0  0  0  0  0  0  0  0  0  0
    0.3708   -0.1104    0.0000 C   0  0  0  0  0  0  0  0  0  0  0  0
   -0.1308   -0.9754    0.0000 C   0  0  0  0  0  0  0  0  0  0  0  0
    0.8692   -0.9774    0.0000 C   0  0  0  0  0  0  0  0  0  0  0  0
    1.2380    0.3878    0.0000 C   0  0  0  0  0  0  0  0  0  0  0  0
  1  2  1  0
  2  3  2  0
  2  4  1  0
  4  5  1  0
  4  6  1  0
  4  7  1  0
M  ISO  1   1   2
V    1 *
M  END
>  <symbol>  (926) 
PivCap

>  <m_Rgroups>  (926) 
None,[OH],None,None,None,None

>  <m_abbr>  (926) 
PivCap

>  <m_name>  (926) 
Pivaloyl (trimethylacetyl) cap

>  <m_type>  (926) 
cap

>  <m_subtype>  (926) 
cap

>  <m_chem_types>  (926) 
2:backbone_c

$$$$

     RDKit          2D

  9  9  0  0  0  0  0  0  0  0999 V2000
   -1.9245    0.1096    0.0000 R   0  0  0  0  0  0  0  0  0  0  0  0
   -1.0589    0.6104    0.0000 C   0  0  0  0  0  0  0  0  0  0  0  0
   -1.0597    1.6104    0.0000 O   0  0  0  0  0  0  0  0  0  0  0  0
   -0.1925    0.1110    0.0000 C   0  0  0  0  0  0  0  0  0  0  0  0
   -0.1917   -0.8890    0.0000 C   0  0  0  0  0  0  0  0  0  0  0  0
    0.6747   -1.3884    0.0000 C   0  0  0  0  0  0  0  0  0  0  0  0
    1.5403   -0.8876    0.0000 C   0  0  0  0  0  0  0  0  0  0  0  0
    1.5395    0.1124    0.0000 C   0  0  0  0  0  0  0  0  0  0  0  0
    0.6731    0.6116    0.0000 C   0  0  0  0  0  0  0  0  0  0  0  0
  1  2  1  0
  2  3  2  0
  2  4  1  0
  4  5  1  0
  5  6  1  0
  6  7  1  0
  7  8  1  0
  8  9  1  0
  9  4  1  0
M  ISO  1   1   2
V    1 *
M  END
>  <symbol>  (927) 
CyclohexCap

>  <m_Rgroups>  (927) 
None,[OH],None,None,None,None

>  <m_abbr>  (927) 
CyclohexCap

>  <m_name>  (927) 
Cyclohexanecarbonyl cap

>  <m_type>  (927) 
cap

>  <m_subtype>  (927) 
cap

>  <m_chem_types>  (927) 
2:backbone_c

$$$$

     RDKit          2D

 10 10  0  0  0  0  0  0  0  0999 V2000
   -2.4220   -0.8086    0.0000 R   0  0  0  0  0  0  0  0  0  0  0  0
   -1.5578   -0.3056    0.0000 C   0  0  0  0  0  0  0  0  0  0  0  0
   -1.5614    0.6944    0.0000 O   0  0  0  0  0  0  0  0  0  0  0  0
   -0.6900   -0.8024    0.0000 C   0  0  0  0  0  0  0  0  0  0  0  0
    0.1742   -0.2994    0.0000 C   0  0  0  0  0  0  0  0  0  0  0  0
    1.0422   -0.7964    0.0000 C   0  0  0  0  0  0  0  0  0  0  0  0
    1.9062   -0.2932    0.0000 C   0  0  0  0  0  0  0  0  0  0  0  0
    1.9028    0.7068    0.0000 C   0  0  0  0  0  0  0  0  0  0  0  0
    1.0348    1.2038    0.0000 C   0  0  0  0  0  0  0  0  0  0  0  0
    0.1708    0.7006    0.0000 C   0  0  0  0  0  0  0  0  0  0  0  0
  1  2  1  0
  2  3  2  0
  2  4  1  0
  4  5  1  0
  5  6  2  0
  6  7  1  0
  7  8  2  0
  8  9  1  0
  9 10  2  0
 10  5  1  0
M  ISO  1   1   2
V    1 *
M  END
>  <symbol>  (928) 
BnCap

>  <m_Rgroups>  (928) 
None,[OH],None,None,None,None

>  <m_abbr>  (928) 
BnCap

>  <m_name>  (928) 
Phenylacetyl (benzyl carbonyl) cap

>  <m_type>  (928) 
cap

>  <m_subtype>  (928) 
cap

>  <m_chem_types>  (928) 
2:backbone_c

$$$$

     RDKit          2D

 13 14  0  0  0  0  0  0  0  0999 V2000
   -2.7980    0.2286    0.0000 R   0  0  0  0  0  0  0  0  0  0  0  0
   -1.9324    0.7292    0.0000 C   0  0  0  0  0  0  0  0  0  0  0  0
   -1.9332    1.7292    0.0000 O   0  0  0  0  0  0  0  0  0  0  0  0
   -1.0660    0.2300    0.0000 C   0  0  0  0  0  0  0  0  0  0  0  0
   -1.0652   -0.7700    0.0000 C   0  0  0  0  0  0  0  0  0  0  0  0
   -0.1988   -1.2694    0.0000 C   0  0  0  0  0  0  0  0  0  0  0  0
    0.6668   -0.7686    0.0000 C   0  0  0  0  0  0  0  0  0  0  0  0
    1.5332   -1.2680    0.0000 C   0  0  0  0  0  0  0  0  0  0  0  0
    2.3988   -0.7672    0.0000 C   0  0  0  0  0  0  0  0  0  0  0  0
    2.3980    0.2328    0.0000 C   0  0  0  0  0  0  0  0  0  0  0  0
    1.5316    0.7320    0.0000 C   0  0  0  0  0  0  0  0  0  0  0  0
    0.6660    0.2314    0.0000 C   0  0  0  0  0  0  0  0  0  0  0  0
   -0.2004    0.7306    0.0000 C   0  0  0  0  0  0  0  0  0  0  0  0
  1  2  1  0
  2  3  2  0
  2  4  1  0
  4  5  1  0
  5  6  2  0
  6  7  1  0
  7  8  2  0
  8  9  1  0
  9 10  2  0
 10 11  1  0
 11 12  2  0
 12 13  1  0
 13  4  2  0
 12  7  1  0
M  ISO  1   1   2
V    1 *
M  END
>  <symbol>  (929) 
NaphtCap

>  <m_Rgroups>  (929) 
None,[OH],None,None,None,None

>  <m_abbr>  (929) 
NaphtCap

>  <m_name>  (929) 
2-Naphthoyl cap

>  <m_type>  (929) 
cap

>  <m_subtype>  (929) 
cap

>  <m_chem_types>  (929) 
2:backbone_c

$$$$

     RDKit          2D

 16 15  0  0  0  0  0  0  0  0999 V2000
    5.7380   -0.3010    0.0000 R   0  0  0  0  0  0  0  0  0  0  0  0
    4.8710    0.1972    0.0000 C   0  0  0  0  0  0  0  0  0  0  0  0
    4.8690    1.1972    0.0000 O   0  0  0  0  0  0  0  0  0  0  0  0
    4.0060   -0.3046    0.0000 C   0  0  0  0  0  0  0  0  0  0  0  0
    3.1390    0.1938    0.0000 C   0  0  0  0  0  0  0  0  0  0  0  0
    2.2740   -0.3080    0.0000 C   0  0  0  0  0  0  0  0  0  0  0  0
    1.4070    0.1904    0.0000 C   0  0  0  0  0  0  0  0  0  0  0  0
    0.5418   -0.3114    0.0000 C   0  0  0  0  0  0  0  0  0  0  0  0
   -0.3252    0.1868    0.0000 C   0  0  0  0  0  0  0  0  0  0  0  0
   -1.1902   -0.3148    0.0000 C   0  0  0  0  0  0  0  0  0  0  0  0
   -2.0572    0.1834    0.0000 C   0  0  0  0  0  0  0  0  0  0  0  0
   -2.9222   -0.3184    0.0000 C   0  0  0  0  0  0  0  0  0  0  0  0
   -3.7892    0.1800    0.0000 C   0  0  0  0  0  0  0  0  0  0  0  0
   -4.6542   -0.3218    0.0000 C   0  0  0  0  0  0  0  0  0  0  0  0
   -5.5212    0.1764    0.0000 C   0  0  0  0  0  0  0  0  0  0  0  0
   -6.3862   -0.3252    0.0000 C   0  0  0  0  0  0  0  0  0  0  0  0
  1  2  1  0
  2  3  2  0
  2  4  1  0
  4  5  1  0
  5  6  1  0
  6  7  1  0
  7  8  1  0
  8  9  1  0
  9 10  1  0
 10 11  1  0
 11 12  1  0
 12 13  1  0
 13 14  1  0
 14 15  1  0
 15 16  1  0
M  ISO  1   1   2
V    1 *
M  END
>  <symbol>  (930) 
MyrCap

>  <m_Rgroups>  (930) 
None,[OH],None,None,None,None

>  <m_abbr>  (930) 
MyrCap

>  <m_name>  (930) 
Myristoyl cap (C14)

>  <m_type>  (930) 
cap

>  <m_subtype>  (930) 
cap

>  <m_chem_types>  (930) 
2:backbone_c

$$$$

     RDKit          2D

 18 17  0  0  0  0  0  0  0  0999 V2000
    6.5919   -0.2924    0.0000 R   0  0  0  0  0  0  0  0  0  0  0  0
    5.7249    0.2058    0.0000 C   0  0  0  0  0  0  0  0  0  0  0  0
    5.7229    1.2058    0.0000 O   0  0  0  0  0  0  0  0  0  0  0  0
    4.8599   -0.2958    0.0000 C   0  0  0  0  0  0  0  0  0  0  0  0
    3.9929    0.2024    0.0000 C   0  0  0  0  0  0  0  0  0  0  0  0
    3.1279   -0.2994    0.0000 C   0  0  0  0  0  0  0  0  0  0  0  0
    2.2609    0.1990    0.0000 C   0  0  0  0  0  0  0  0  0  0  0  0
    1.3959   -0.3028    0.0000 C   0  0  0  0  0  0  0  0  0  0  0  0
    0.5289    0.1954    0.0000 C   0  0  0  0  0  0  0  0  0  0  0  0
   -0.3361   -0.3062    0.0000 C   0  0  0  0  0  0  0  0  0  0  0  0
   -1.2031    0.1920    0.0000 C   0  0  0  0  0  0  0  0  0  0  0  0
   -2.0681   -0.3096    0.0000 C   0  0  0  0  0  0  0  0  0  0  0  0
   -2.9353    0.1886    0.0000 C   0  0  0  0  0  0  0  0  0  0  0  0
   -3.8003   -0.3132    0.0000 C   0  0  0  0  0  0  0  0  0  0  0  0
   -4.6673    0.1852    0.0000 C   0  0  0  0  0  0  0  0  0  0  0  0
   -5.5323   -0.3166    0.0000 C   0  0  0  0  0  0  0  0  0  0  0  0
   -6.3993    0.1816    0.0000 C   0  0  0  0  0  0  0  0  0  0  0  0
   -7.2643   -0.3200    0.0000 C   0  0  0  0  0  0  0  0  0  0  0  0
  1  2  1  0
  2  3  2  0
  2  4  1  0
  4  5  1  0
  5  6  1  0
  6  7  1  0
  7  8  1  0
  8  9  1  0
  9 10  1  0
 10 11  1  0
 11 12  1  0
 12 13  1  0
 13 14  1  0
 14 15  1  0
 15 16  1  0
 16 17  1  0
 17 18  1  0
M  ISO  1   1   2
V    1 *
M  END
>  <symbol>  (931) 
PalCap

>  <m_Rgroups>  (931) 
None,[OH],None,None,None,None

>  <m_abbr>  (931) 
PalCap

>  <m_name>  (931) 
Palmitoyl cap (C16)

>  <m_type>  (931) 
cap

>  <m_subtype>  (931) 
cap

>  <m_chem_types>  (931) 
2:backbone_c

$$$$

     RDKit          2D

  9  9  0  0  0  0  0  0  0  0999 V2000
   -1.9245    0.1096    0.0000 R   0  0  0  0  0  0  0  0  0  0  0  0
   -1.0589    0.6104    0.0000 C   0  0  0  0  0  0  0  0  0  0  0  0
   -1.0597    1.6104    0.0000 O   0  0  0  0  0  0  0  0  0  0  0  0
   -0.1925    0.1110    0.0000 C   0  0  0  0  0  0  0  0  0  0  0  0
   -0.1917   -0.8890    0.0000 C   0  0  0  0  0  0  0  0  0  0  0  0
    0.6747   -1.3884    0.0000 C   0  0  0  0  0  0  0  0  0  0  0  0
    1.5403   -0.8876    0.0000 C   0  0  0  0  0  0  0  0  0  0  0  0
    1.5395    0.1124    0.0000 C   0  0  0  0  0  0  0  0  0  0  0  0
    0.6731    0.6116    0.0000 C   0  0  0  0  0  0  0  0  0  0  0  0
  1  2  1  0
  2  3  2  0
  2  4  1  0
  4  5  2  0
  5  6  1  0
  6  7  2  0
  7  8  1  0
  8  9  2  0
  9  4  1  0
M  ISO  1   1   2
V    1 *
M  END
>  <symbol>  (932) 
BzCap

>  <m_Rgroups>  (932) 
None,[OH],None,None,None,None

>  <m_abbr>  (932) 
BzCap

>  <m_name>  (932) 
Benzoyl cap

>  <m_type>  (932) 
cap

>  <m_subtype>  (932) 
cap

>  <m_chem_types>  (932) 
2:backbone_c

$$$$

     RDKit          2D

 15 15  0  0  0  0  0  0  0  0999 V2000
   -2.9107    2.0342    0.0000 R   0  0  0  0  0  0  0  0  0  0  0  0
   -1.6606    1.2052    0.0000 N   0  0  0  0  0  0  0  0  0  0  0  0
   -0.3176    1.8733    0.0000 C   0  0  0  0  0  0  0  0  0  0  0  0
   -1.7535   -0.2919    0.0000 C   0  0  0  0  0  0  0  0  0  0  0  0
   -0.5034   -1.1210    0.0000 C   0  0  0  0  0  0  0  0  0  0  0  0
    0.8396   -0.4529    0.0000 C   0  0  0  0  0  0  0  0  0  0  0  0
    0.9325    1.0442    0.0000 C   0  0  0  0  0  0  0  0  0  0  0  0
    2.2755    1.7123    0.0000 C   0  0  0  0  0  0  0  0  0  0  0  0
    3.5256    0.8833    0.0000 C   0  0  0  0  0  0  0  0  0  0  0  0
    3.4327   -0.6138    0.0000 C   0  0  0  0  0  0  0  0  0  0  0  0
    4.6828   -1.4428    0.0000 Cl  0  0  0  0  0  0  0  0  0  0  0  0
    2.0897   -1.2819    0.0000 C   0  0  0  0  0  0  0  0  0  0  0  0
   -3.0965   -0.9600    0.0000 C   0  0  0  0  0  0  0  0  0  0  0  0
   -4.3466   -0.1310    0.0000 R   0  0  0  0  0  0  0  0  0  0  0  0
   -3.1894   -2.4572    0.0000 O   0  0  0  0  0  0  0  0  0  0  0  0
  1  2  1  0
  2  3  1  0
  2  4  1  0
  4  5  1  1
  5  6  1  0
  6  7  2  0
  7  8  1  0
  8  9  2  0
  9 10  1  0
 10 11  1  0
 10 12  2  0
  4 13  1  0
 13 14  1  0
 13 15  2  0
 12  6  1  0
M  ISO  2   1   1  14   2
V    1 *
V   14 *
M  END
>  <symbol>  (933) 
mePhe_3Cl

>  <m_Rgroups>  (933) 
[H],[OH],None,None,None,None

>  <m_abbr>  (933) 
mePhe_3Cl

>  <m_name>  (933) 
NMe-L-3-chlorophenylalanine

>  <m_type>  (933) 
aa

>  <m_subtype>  (933) 
modified

>  <m_chem_types>  (933) 
1:backbone_n,2:backbone_c

$$$$

     RDKit          2D

 15 15  0  0  0  0  0  0  0  0999 V2000
   -2.9107    2.0342    0.0000 R   0  0  0  0  0  0  0  0  0  0  0  0
   -1.6606    1.2052    0.0000 N   0  0  0  0  0  0  0  0  0  0  0  0
   -0.3176    1.8733    0.0000 C   0  0  0  0  0  0  0  0  0  0  0  0
   -1.7535   -0.2919    0.0000 C   0  0  0  0  0  0  0  0  0  0  0  0
   -0.5034   -1.1210    0.0000 C   0  0  0  0  0  0  0  0  0  0  0  0
    0.8396   -0.4529    0.0000 C   0  0  0  0  0  0  0  0  0  0  0  0
    0.9325    1.0442    0.0000 C   0  0  0  0  0  0  0  0  0  0  0  0
    2.2755    1.7123    0.0000 C   0  0  0  0  0  0  0  0  0  0  0  0
    3.5256    0.8833    0.0000 C   0  0  0  0  0  0  0  0  0  0  0  0
    3.4327   -0.6138    0.0000 C   0  0  0  0  0  0  0  0  0  0  0  0
    4.6828   -1.4428    0.0000 Cl  0  0  0  0  0  0  0  0  0  0  0  0
    2.0897   -1.2819    0.0000 C   0  0  0  0  0  0  0  0  0  0  0  0
   -3.0965   -0.9600    0.0000 C   0  0  0  0  0  0  0  0  0  0  0  0
   -4.3466   -0.1310    0.0000 R   0  0  0  0  0  0  0  0  0  0  0  0
   -3.1894   -2.4572    0.0000 O   0  0  0  0  0  0  0  0  0  0  0  0
  1  2  1  0
  2  3  1  0
  2  4  1  0
  4  5  1  6
  5  6  1  0
  6  7  2  0
  7  8  1  0
  8  9  2  0
  9 10  1  0
 10 11  1  0
 10 12  2  0
  4 13  1  0
 13 14  1  0
 13 15  2  0
 12  6  1  0
M  ISO  2   1   1  14   2
V    1 *
V   14 *
M  END
>  <symbol>  (934) 
D_mePhe_3Cl

>  <m_Rgroups>  (934) 
[H],[OH],None,None,None,None

>  <m_abbr>  (934) 
D_mePhe_3Cl

>  <m_name>  (934) 
NMe-D-3-chlorophenylalanine

>  <m_type>  (934) 
aa

>  <m_subtype>  (934) 
modified

>  <m_chem_types>  (934) 
1:backbone_n,2:backbone_c

$$$$

     RDKit          2D

 15 15  0  0  0  0  0  0  0  0999 V2000
   -0.9231   -0.8673    0.0000 R   0  0  0  0  0  0  0  0  0  0  0  0
   -0.0567   -1.3667    0.0000 N   0  0  0  0  0  0  0  0  0  0  0  0
   -0.0559   -2.3667    0.0000 C   0  0  0  0  0  0  0  0  0  0  0  0
    0.8089   -0.8659    0.0000 C   0  0  0  0  0  0  0  0  0  0  0  0
    0.8081    0.1341    0.0000 C   0  0  0  0  0  0  0  0  0  0  0  0
   -0.0581    0.6333    0.0000 C   0  0  0  0  0  0  0  0  0  0  0  0
   -0.9239    0.1327    0.0000 C   0  0  0  0  0  0  0  0  0  0  0  0
   -1.7903    0.6319    0.0000 C   0  0  0  0  0  0  0  0  0  0  0  0
   -1.7911    1.6319    0.0000 C   0  0  0  0  0  0  0  0  0  0  0  0
   -0.9253    2.1325    0.0000 C   0  0  0  0  0  0  0  0  0  0  0  0
   -0.9261    3.1327    0.0000 Br  0  0  0  0  0  0  0  0  0  0  0  0
   -0.0589    1.6333    0.0000 C   0  0  0  0  0  0  0  0  0  0  0  0
    1.6753   -1.3653    0.0000 C   0  0  0  0  0  0  0  0  0  0  0  0
    1.6761   -2.3653    0.0000 R   0  0  0  0  0  0  0  0  0  0  0  0
    2.5409   -0.8647    0.0000 O   0  0  0  0  0  0  0  0  0  0  0  0
  1  2  1  0
  2  3  1  0
  2  4  1  0
  4  5  1  1
  5  6  1  0
  6  7  2  0
  7  8  1  0
  8  9  2  0
  9 10  1  0
 10 11  1  0
 10 12  2  0
  4 13  1  0
 13 14  1  0
 13 15  2  0
 12  6  1  0
M  ISO  2   1   1  14   2
V    1 *
V   14 *
M  END
>  <symbol>  (935) 
mePhe_3Br

>  <m_Rgroups>  (935) 
[H],[OH],None,None,None,None

>  <m_abbr>  (935) 
mePhe_3Br

>  <m_name>  (935) 
NMe-L-3-bromophenylalanine

>  <m_type>  (935) 
aa

>  <m_subtype>  (935) 
modified

>  <m_chem_types>  (935) 
1:backbone_n,2:backbone_c

$$$$

     RDKit          2D

 15 15  0  0  0  0  0  0  0  0999 V2000
   -0.9231   -0.8673    0.0000 R   0  0  0  0  0  0  0  0  0  0  0  0
   -0.0567   -1.3667    0.0000 N   0  0  0  0  0  0  0  0  0  0  0  0
   -0.0559   -2.3667    0.0000 C   0  0  0  0  0  0  0  0  0  0  0  0
    0.8089   -0.8659    0.0000 C   0  0  0  0  0  0  0  0  0  0  0  0
    0.8081    0.1341    0.0000 C   0  0  0  0  0  0  0  0  0  0  0  0
   -0.0581    0.6333    0.0000 C   0  0  0  0  0  0  0  0  0  0  0  0
   -0.9239    0.1327    0.0000 C   0  0  0  0  0  0  0  0  0  0  0  0
   -1.7903    0.6319    0.0000 C   0  0  0  0  0  0  0  0  0  0  0  0
   -1.7911    1.6319    0.0000 C   0  0  0  0  0  0  0  0  0  0  0  0
   -0.9253    2.1325    0.0000 C   0  0  0  0  0  0  0  0  0  0  0  0
   -0.9261    3.1327    0.0000 Br  0  0  0  0  0  0  0  0  0  0  0  0
   -0.0589    1.6333    0.0000 C   0  0  0  0  0  0  0  0  0  0  0  0
    1.6753   -1.3653    0.0000 C   0  0  0  0  0  0  0  0  0  0  0  0
    1.6761   -2.3653    0.0000 R   0  0  0  0  0  0  0  0  0  0  0  0
    2.5409   -0.8647    0.0000 O   0  0  0  0  0  0  0  0  0  0  0  0
  1  2  1  0
  2  3  1  0
  2  4  1  0
  4  5  1  6
  5  6  1  0
  6  7  2  0
  7  8  1  0
  8  9  2  0
  9 10  1  0
 10 11  1  0
 10 12  2  0
  4 13  1  0
 13 14  1  0
 13 15  2  0
 12  6  1  0
M  ISO  2   1   1  14   2
V    1 *
V   14 *
M  END
>  <symbol>  (936) 
D_mePhe_3Br

>  <m_Rgroups>  (936) 
[H],[OH],None,None,None,None

>  <m_abbr>  (936) 
D_mePhe_3Br

>  <m_name>  (936) 
NMe-D-3-bromophenylalanine

>  <m_type>  (936) 
aa

>  <m_subtype>  (936) 
modified

>  <m_chem_types>  (936) 
1:backbone_n,2:backbone_c

$$$$

     RDKit          2D

 18 18  0  0  0  0  0  0  0  0999 V2000
   -0.7689   -1.1118    0.0000 R   0  0  0  0  0  0  0  0  0  0  0  0
    0.0975   -1.6110    0.0000 N   0  0  0  0  0  0  0  0  0  0  0  0
    0.0983   -2.6110    0.0000 C   0  0  0  0  0  0  0  0  0  0  0  0
    0.9631   -1.1104    0.0000 C   0  0  0  0  0  0  0  0  0  0  0  0
    0.9623   -0.1104    0.0000 C   0  0  0  0  0  0  0  0  0  0  0  0
    0.0959    0.3890    0.0000 C   0  0  0  0  0  0  0  0  0  0  0  0
   -0.7697   -0.1116    0.0000 C   0  0  0  0  0  0  0  0  0  0  0  0
   -1.6361    0.3876    0.0000 C   0  0  0  0  0  0  0  0  0  0  0  0
   -1.6369    1.3876    0.0000 C   0  0  0  0  0  0  0  0  0  0  0  0
   -2.5033    1.8868    0.0000 O   0  0  0  0  0  0  0  0  0  0  0  0
   -3.3689    1.3862    0.0000 C   0  0  0  0  0  0  0  0  0  0  0  0
   -0.7713    1.8882    0.0000 C   0  0  0  0  0  0  0  0  0  0  0  0
    0.0951    1.3890    0.0000 C   0  0  0  0  0  0  0  0  0  0  0  0
    0.9607    1.8896    0.0000 O   0  0  0  0  0  0  0  0  0  0  0  0
    1.8271    1.3904    0.0000 C   0  0  0  0  0  0  0  0  0  0  0  0
    1.8295   -1.6096    0.0000 C   0  0  0  0  0  0  0  0  0  0  0  0
    1.8303   -2.6096    0.0000 R   0  0  0  0  0  0  0  0  0  0  0  0
    2.6951   -1.1090    0.0000 O   0  0  0  0  0  0  0  0  0  0  0  0
  1  2  1  0
  2  3  1  0
  2  4  1  0
  4  5  1  1
  5  6  1  0
  6  7  1  0
  7  8  2  0
  8  9  1  0
  9 10  1  0
 10 11  1  0
  9 12  2  0
 12 13  1  0
 13 14  1  0
 14 15  1  0
  4 16  1  0
 16 17  1  0
 16 18  2  0
 13  6  2  0
M  ISO  2   1   1  17   2
V    1 *
V   17 *
M  END
>  <symbol>  (937) 
mePhe_34diOMe

>  <m_Rgroups>  (937) 
[H],[OH],None,None,None,None

>  <m_abbr>  (937) 
mePhe_34diOMe

>  <m_name>  (937) 
NMe-L-3,4-dimethoxyphenylalanine

>  <m_type>  (937) 
aa

>  <m_subtype>  (937) 
modified

>  <m_chem_types>  (937) 
1:backbone_n,2:backbone_c

$$$$

     RDKit          2D

 18 18  0  0  0  0  0  0  0  0999 V2000
   -0.7689   -1.1118    0.0000 R   0  0  0  0  0  0  0  0  0  0  0  0
    0.0975   -1.6110    0.0000 N   0  0  0  0  0  0  0  0  0  0  0  0
    0.0983   -2.6110    0.0000 C   0  0  0  0  0  0  0  0  0  0  0  0
    0.9631   -1.1104    0.0000 C   0  0  0  0  0  0  0  0  0  0  0  0
    0.9623   -0.1104    0.0000 C   0  0  0  0  0  0  0  0  0  0  0  0
    0.0959    0.3890    0.0000 C   0  0  0  0  0  0  0  0  0  0  0  0
   -0.7697   -0.1116    0.0000 C   0  0  0  0  0  0  0  0  0  0  0  0
   -1.6361    0.3876    0.0000 C   0  0  0  0  0  0  0  0  0  0  0  0
   -1.6369    1.3876    0.0000 C   0  0  0  0  0  0  0  0  0  0  0  0
   -2.5033    1.8868    0.0000 O   0  0  0  0  0  0  0  0  0  0  0  0
   -3.3689    1.3862    0.0000 C   0  0  0  0  0  0  0  0  0  0  0  0
   -0.7713    1.8882    0.0000 C   0  0  0  0  0  0  0  0  0  0  0  0
    0.0951    1.3890    0.0000 C   0  0  0  0  0  0  0  0  0  0  0  0
    0.9607    1.8896    0.0000 O   0  0  0  0  0  0  0  0  0  0  0  0
    1.8271    1.3904    0.0000 C   0  0  0  0  0  0  0  0  0  0  0  0
    1.8295   -1.6096    0.0000 C   0  0  0  0  0  0  0  0  0  0  0  0
    1.8303   -2.6096    0.0000 R   0  0  0  0  0  0  0  0  0  0  0  0
    2.6951   -1.1090    0.0000 O   0  0  0  0  0  0  0  0  0  0  0  0
  1  2  1  0
  2  3  1  0
  2  4  1  0
  4  5  1  6
  5  6  1  0
  6  7  1  0
  7  8  2  0
  8  9  1  0
  9 10  1  0
 10 11  1  0
  9 12  2  0
 12 13  1  0
 13 14  1  0
 14 15  1  0
  4 16  1  0
 16 17  1  0
 16 18  2  0
 13  6  2  0
M  ISO  2   1   1  17   2
V    1 *
V   17 *
M  END
>  <symbol>  (938) 
D_mePhe_34diOMe

>  <m_Rgroups>  (938) 
[H],[OH],None,None,None,None

>  <m_abbr>  (938) 
D_mePhe_34diOMe

>  <m_name>  (938) 
NMe-D-3,4-dimethoxyphenylalanine

>  <m_type>  (938) 
aa

>  <m_subtype>  (938) 
modified

>  <m_chem_types>  (938) 
1:backbone_n,2:backbone_c

$$$$

     RDKit          2D

 17 17  0  0  0  0  0  0  0  0999 V2000
   -0.4624   -1.0866    0.0000 R   0  0  0  0  0  0  0  0  0  0  0  0
    0.4018   -1.5896    0.0000 N   0  0  0  0  0  0  0  0  0  0  0  0
    0.3982   -2.5896    0.0000 C   0  0  0  0  0  0  0  0  0  0  0  0
    1.2696   -1.0928    0.0000 C   0  0  0  0  0  0  0  0  0  0  0  0
    1.2732   -0.0928    0.0000 C   0  0  0  0  0  0  0  0  0  0  0  0
    0.4090    0.4102    0.0000 C   0  0  0  0  0  0  0  0  0  0  0  0
   -0.4588   -0.0866    0.0000 C   0  0  0  0  0  0  0  0  0  0  0  0
   -1.3230    0.4166    0.0000 C   0  0  0  0  0  0  0  0  0  0  0  0
   -1.3194    1.4164    0.0000 C   0  0  0  0  0  0  0  0  0  0  0  0
   -2.1836    1.9196    0.0000 C   0  0  0  0  0  0  0  0  0  0  0  0
   -3.0514    1.4226    0.0000 C   0  0  0  0  0  0  0  0  0  0  0  0
   -2.1800    2.9196    0.0000 C   0  0  0  0  0  0  0  0  0  0  0  0
   -0.4516    1.9134    0.0000 C   0  0  0  0  0  0  0  0  0  0  0  0
    0.4126    1.4102    0.0000 C   0  0  0  0  0  0  0  0  0  0  0  0
    2.1338   -1.5958    0.0000 C   0  0  0  0  0  0  0  0  0  0  0  0
    2.1302   -2.5958    0.0000 R   0  0  0  0  0  0  0  0  0  0  0  0
    3.0016   -1.0990    0.0000 O   0  0  0  0  0  0  0  0  0  0  0  0
  1  2  1  0
  2  3  1  0
  2  4  1  0
  4  5  1  1
  5  6  1  0
  6  7  1  0
  7  8  2  0
  8  9  1  0
  9 10  1  0
 10 11  1  0
 10 12  1  0
  9 13  2  0
 13 14  1  0
  4 15  1  0
 15 16  1  0
 15 17  2  0
 14  6  2  0
M  ISO  2   1   1  16   2
V    1 *
V   16 *
M  END
>  <symbol>  (939) 
mePhe_4iPr

>  <m_Rgroups>  (939) 
[H],[OH],None,None,None,None

>  <m_abbr>  (939) 
mePhe_4iPr

>  <m_name>  (939) 
NMe-L-4-isopropylphenylalanine

>  <m_type>  (939) 
aa

>  <m_subtype>  (939) 
modified

>  <m_chem_types>  (939) 
1:backbone_n,2:backbone_c

$$$$

     RDKit          2D

 17 17  0  0  0  0  0  0  0  0999 V2000
   -0.4624   -1.0866    0.0000 R   0  0  0  0  0  0  0  0  0  0  0  0
    0.4018   -1.5896    0.0000 N   0  0  0  0  0  0  0  0  0  0  0  0
    0.3982   -2.5896    0.0000 C   0  0  0  0  0  0  0  0  0  0  0  0
    1.2696   -1.0928    0.0000 C   0  0  0  0  0  0  0  0  0  0  0  0
    1.2732   -0.0928    0.0000 C   0  0  0  0  0  0  0  0  0  0  0  0
    0.4090    0.4102    0.0000 C   0  0  0  0  0  0  0  0  0  0  0  0
   -0.4588   -0.0866    0.0000 C   0  0  0  0  0  0  0  0  0  0  0  0
   -1.3230    0.4166    0.0000 C   0  0  0  0  0  0  0  0  0  0  0  0
   -1.3194    1.4164    0.0000 C   0  0  0  0  0  0  0  0  0  0  0  0
   -2.1836    1.9196    0.0000 C   0  0  0  0  0  0  0  0  0  0  0  0
   -3.0514    1.4226    0.0000 C   0  0  0  0  0  0  0  0  0  0  0  0
   -2.1800    2.9196    0.0000 C   0  0  0  0  0  0  0  0  0  0  0  0
   -0.4516    1.9134    0.0000 C   0  0  0  0  0  0  0  0  0  0  0  0
    0.4126    1.4102    0.0000 C   0  0  0  0  0  0  0  0  0  0  0  0
    2.1338   -1.5958    0.0000 C   0  0  0  0  0  0  0  0  0  0  0  0
    2.1302   -2.5958    0.0000 R   0  0  0  0  0  0  0  0  0  0  0  0
    3.0016   -1.0990    0.0000 O   0  0  0  0  0  0  0  0  0  0  0  0
  1  2  1  0
  2  3  1  0
  2  4  1  0
  4  5  1  6
  5  6  1  0
  6  7  1  0
  7  8  2  0
  8  9  1  0
  9 10  1  0
 10 11  1  0
 10 12  1  0
  9 13  2  0
 13 14  1  0
  4 15  1  0
 15 16  1  0
 15 17  2  0
 14  6  2  0
M  ISO  2   1   1  16   2
V    1 *
V   16 *
M  END
>  <symbol>  (940) 
D_mePhe_4iPr

>  <m_Rgroups>  (940) 
[H],[OH],None,None,None,None

>  <m_abbr>  (940) 
D_mePhe_4iPr

>  <m_name>  (940) 
NMe-D-4-isopropylphenylalanine

>  <m_type>  (940) 
aa

>  <m_subtype>  (940) 
modified

>  <m_chem_types>  (940) 
1:backbone_n,2:backbone_c

$$$$

     RDKit          2D

 16 16  0  0  0  0  0  0  0  0999 V2000
   -1.0818   -1.0009    0.0000 R   0  0  0  0  0  0  0  0  0  0  0  0
   -0.2154   -1.5001    0.0000 N   0  0  0  0  0  0  0  0  0  0  0  0
   -0.2146   -2.5001    0.0000 C   0  0  0  0  0  0  0  0  0  0  0  0
    0.6502   -0.9995    0.0000 C   0  0  0  0  0  0  0  0  0  0  0  0
    0.6496    0.0005    0.0000 C   0  0  0  0  0  0  0  0  0  0  0  0
   -0.2168    0.4997    0.0000 C   0  0  0  0  0  0  0  0  0  0  0  0
   -1.0824   -0.0007    0.0000 C   0  0  0  0  0  0  0  0  0  0  0  0
   -1.9490    0.4985    0.0000 C   0  0  0  0  0  0  0  0  0  0  0  0
   -1.9498    1.4985    0.0000 C   0  0  0  0  0  0  0  0  0  0  0  0
   -1.0840    1.9991    0.0000 C   0  0  0  0  0  0  0  0  0  0  0  0
   -0.2176    1.4999    0.0000 C   0  0  0  0  0  0  0  0  0  0  0  0
    0.6480    2.0005    0.0000 O   0  0  0  0  0  0  0  0  0  0  0  0
    0.6472    3.0005    0.0000 C   0  0  0  0  0  0  0  0  0  0  0  0
    1.5166   -1.4987    0.0000 C   0  0  0  0  0  0  0  0  0  0  0  0
    1.5174   -2.4987    0.0000 R   0  0  0  0  0  0  0  0  0  0  0  0
    2.3822   -0.9981    0.0000 O   0  0  0  0  0  0  0  0  0  0  0  0
  1  2  1  0
  2  3  1  0
  2  4  1  0
  4  5  1  1
  5  6  1  0
  6  7  2  0
  7  8  1  0
  8  9  2  0
  9 10  1  0
 10 11  2  0
 11 12  1  0
 12 13  1  0
  4 14  1  0
 14 15  1  0
 14 16  2  0
 11  6  1  0
M  ISO  2   1   1  15   2
V    1 *
V   15 *
M  END
>  <symbol>  (941) 
mePhe_2OMe

>  <m_Rgroups>  (941) 
[H],[OH],None,None,None,None

>  <m_abbr>  (941) 
mePhe_2OMe

>  <m_name>  (941) 
NMe-L-2-methoxyphenylalanine

>  <m_type>  (941) 
aa

>  <m_subtype>  (941) 
modified

>  <m_chem_types>  (941) 
1:backbone_n,2:backbone_c

$$$$

     RDKit          2D

 16 16  0  0  0  0  0  0  0  0999 V2000
   -1.0818   -1.0009    0.0000 R   0  0  0  0  0  0  0  0  0  0  0  0
   -0.2154   -1.5001    0.0000 N   0  0  0  0  0  0  0  0  0  0  0  0
   -0.2146   -2.5001    0.0000 C   0  0  0  0  0  0  0  0  0  0  0  0
    0.6502   -0.9995    0.0000 C   0  0  0  0  0  0  0  0  0  0  0  0
    0.6496    0.0005    0.0000 C   0  0  0  0  0  0  0  0  0  0  0  0
   -0.2168    0.4997    0.0000 C   0  0  0  0  0  0  0  0  0  0  0  0
   -1.0824   -0.0007    0.0000 C   0  0  0  0  0  0  0  0  0  0  0  0
   -1.9490    0.4985    0.0000 C   0  0  0  0  0  0  0  0  0  0  0  0
   -1.9498    1.4985    0.0000 C   0  0  0  0  0  0  0  0  0  0  0  0
   -1.0840    1.9991    0.0000 C   0  0  0  0  0  0  0  0  0  0  0  0
   -0.2176    1.4999    0.0000 C   0  0  0  0  0  0  0  0  0  0  0  0
    0.6480    2.0005    0.0000 O   0  0  0  0  0  0  0  0  0  0  0  0
    0.6472    3.0005    0.0000 C   0  0  0  0  0  0  0  0  0  0  0  0
    1.5166   -1.4987    0.0000 C   0  0  0  0  0  0  0  0  0  0  0  0
    1.5174   -2.4987    0.0000 R   0  0  0  0  0  0  0  0  0  0  0  0
    2.3822   -0.9981    0.0000 O   0  0  0  0  0  0  0  0  0  0  0  0
  1  2  1  0
  2  3  1  0
  2  4  1  0
  4  5  1  6
  5  6  1  0
  6  7  2  0
  7  8  1  0
  8  9  2  0
  9 10  1  0
 10 11  2  0
 11 12  1  0
 12 13  1  0
  4 14  1  0
 14 15  1  0
 14 16  2  0
 11  6  1  0
M  ISO  2   1   1  15   2
V    1 *
V   15 *
M  END
>  <symbol>  (942) 
D_mePhe_2OMe

>  <m_Rgroups>  (942) 
[H],[OH],None,None,None,None

>  <m_abbr>  (942) 
D_mePhe_2OMe

>  <m_name>  (942) 
NMe-D-2-methoxyphenylalanine

>  <m_type>  (942) 
aa

>  <m_subtype>  (942) 
modified

>  <m_chem_types>  (942) 
1:backbone_n,2:backbone_c

$$$$

     RDKit          2D

 15 15  0  0  0  0  0  0  0  0999 V2000
   -1.0386   -0.8008    0.0000 R   0  0  0  0  0  0  0  0  0  0  0  0
   -0.1722   -1.3002    0.0000 N   0  0  0  0  0  0  0  0  0  0  0  0
   -0.1714   -2.3002    0.0000 C   0  0  0  0  0  0  0  0  0  0  0  0
    0.6934   -0.7994    0.0000 C   0  0  0  0  0  0  0  0  0  0  0  0
    0.6926    0.2006    0.0000 C   0  0  0  0  0  0  0  0  0  0  0  0
   -0.1736    0.6998    0.0000 C   0  0  0  0  0  0  0  0  0  0  0  0
   -1.0394    0.1992    0.0000 C   0  0  0  0  0  0  0  0  0  0  0  0
   -1.9058    0.6984    0.0000 C   0  0  0  0  0  0  0  0  0  0  0  0
   -1.9066    1.6986    0.0000 C   0  0  0  0  0  0  0  0  0  0  0  0
   -1.0410    2.1990    0.0000 C   0  0  0  0  0  0  0  0  0  0  0  0
   -0.1744    1.7000    0.0000 C   0  0  0  0  0  0  0  0  0  0  0  0
    0.6910    2.2006    0.0000 C   0  0  0  0  0  0  0  0  0  0  0  0
    1.5598   -1.2988    0.0000 C   0  0  0  0  0  0  0  0  0  0  0  0
    1.5606   -2.2988    0.0000 R   0  0  0  0  0  0  0  0  0  0  0  0
    2.4254   -0.7980    0.0000 O   0  0  0  0  0  0  0  0  0  0  0  0
  1  2  1  0
  2  3  1  0
  2  4  1  0
  4  5  1  1
  5  6  1  0
  6  7  2  0
  7  8  1  0
  8  9  2  0
  9 10  1  0
 10 11  2  0
 11 12  1  0
  4 13  1  0
 13 14  1  0
 13 15  2  0
 11  6  1  0
M  ISO  2   1   1  14   2
V    1 *
V   14 *
M  END
>  <symbol>  (943) 
mePhe_2Me

>  <m_Rgroups>  (943) 
[H],[OH],None,None,None,None

>  <m_abbr>  (943) 
mePhe_2Me

>  <m_name>  (943) 
NMe-L-2-methylphenylalanine

>  <m_type>  (943) 
aa

>  <m_subtype>  (943) 
modified

>  <m_chem_types>  (943) 
1:backbone_n,2:backbone_c

$$$$

     RDKit          2D

 15 15  0  0  0  0  0  0  0  0999 V2000
   -1.0386   -0.8008    0.0000 R   0  0  0  0  0  0  0  0  0  0  0  0
   -0.1722   -1.3002    0.0000 N   0  0  0  0  0  0  0  0  0  0  0  0
   -0.1714   -2.3002    0.0000 C   0  0  0  0  0  0  0  0  0  0  0  0
    0.6934   -0.7994    0.0000 C   0  0  0  0  0  0  0  0  0  0  0  0
    0.6926    0.2006    0.0000 C   0  0  0  0  0  0  0  0  0  0  0  0
   -0.1736    0.6998    0.0000 C   0  0  0  0  0  0  0  0  0  0  0  0
   -1.0394    0.1992    0.0000 C   0  0  0  0  0  0  0  0  0  0  0  0
   -1.9058    0.6984    0.0000 C   0  0  0  0  0  0  0  0  0  0  0  0
   -1.9066    1.6986    0.0000 C   0  0  0  0  0  0  0  0  0  0  0  0
   -1.0410    2.1990    0.0000 C   0  0  0  0  0  0  0  0  0  0  0  0
   -0.1744    1.7000    0.0000 C   0  0  0  0  0  0  0  0  0  0  0  0
    0.6910    2.2006    0.0000 C   0  0  0  0  0  0  0  0  0  0  0  0
    1.5598   -1.2988    0.0000 C   0  0  0  0  0  0  0  0  0  0  0  0
    1.5606   -2.2988    0.0000 R   0  0  0  0  0  0  0  0  0  0  0  0
    2.4254   -0.7980    0.0000 O   0  0  0  0  0  0  0  0  0  0  0  0
  1  2  1  0
  2  3  1  0
  2  4  1  0
  4  5  1  6
  5  6  1  0
  6  7  2  0
  7  8  1  0
  8  9  2  0
  9 10  1  0
 10 11  2  0
 11 12  1  0
  4 13  1  0
 13 14  1  0
 13 15  2  0
 11  6  1  0
M  ISO  2   1   1  14   2
V    1 *
V   14 *
M  END
>  <symbol>  (944) 
D_mePhe_2Me

>  <m_Rgroups>  (944) 
[H],[OH],None,None,None,None

>  <m_abbr>  (944) 
D_mePhe_2Me

>  <m_name>  (944) 
NMe-D-2-methylphenylalanine

>  <m_type>  (944) 
aa

>  <m_subtype>  (944) 
modified

>  <m_chem_types>  (944) 
1:backbone_n,2:backbone_c

$$$$

     RDKit          2D

 17 17  0  0  0  0  0  0  0  0999 V2000
   -0.4624   -1.0866    0.0000 R   0  0  0  0  0  0  0  0  0  0  0  0
    0.4018   -1.5896    0.0000 N   0  0  0  0  0  0  0  0  0  0  0  0
    0.3982   -2.5896    0.0000 C   0  0  0  0  0  0  0  0  0  0  0  0
    1.2696   -1.0928    0.0000 C   0  0  0  0  0  0  0  0  0  0  0  0
    1.2732   -0.0928    0.0000 C   0  0  0  0  0  0  0  0  0  0  0  0
    0.4090    0.4102    0.0000 C   0  0  0  0  0  0  0  0  0  0  0  0
   -0.4588   -0.0866    0.0000 C   0  0  0  0  0  0  0  0  0  0  0  0
   -1.3230    0.4166    0.0000 C   0  0  0  0  0  0  0  0  0  0  0  0
   -1.3194    1.4164    0.0000 C   0  0  0  0  0  0  0  0  0  0  0  0
   -0.4516    1.9134    0.0000 C   0  0  0  0  0  0  0  0  0  0  0  0
    0.4126    1.4102    0.0000 C   0  0  0  0  0  0  0  0  0  0  0  0
   -2.1836    1.9196    0.0000 N   0  0  0  0  0  0  0  0  0  0  0  0
   -3.0514    1.4226    0.0000 C   0  0  0  0  0  0  0  0  0  0  0  0
   -2.1800    2.9196    0.0000 C   0  0  0  0  0  0  0  0  0  0  0  0
    2.1338   -1.5958    0.0000 C   0  0  0  0  0  0  0  0  0  0  0  0
    2.1302   -2.5958    0.0000 R   0  0  0  0  0  0  0  0  0  0  0  0
    3.0016   -1.0990    0.0000 O   0  0  0  0  0  0  0  0  0  0  0  0
  1  2  1  0
  2  3  1  0
  2  4  1  0
  4  5  1  1
  5  6  1  0
  6  7  1  0
  7  8  2  0
  8  9  1  0
  9 10  2  0
 10 11  1  0
  9 12  1  0
 12 13  1  0
 12 14  1  0
  4 15  1  0
 15 16  1  0
 15 17  2  0
 11  6  2  0
M  ISO  2   1   1  16   2
V    1 *
V   16 *
M  END
>  <symbol>  (945) 
mePhe_4NMe2

>  <m_Rgroups>  (945) 
[H],[OH],None,None,None,None

>  <m_abbr>  (945) 
mePhe_4NMe2

>  <m_name>  (945) 
NMe-L-4-dimethylaminophenylalanine

>  <m_type>  (945) 
aa

>  <m_subtype>  (945) 
modified

>  <m_chem_types>  (945) 
1:backbone_n,2:backbone_c

$$$$

     RDKit          2D

 17 17  0  0  0  0  0  0  0  0999 V2000
   -0.4624   -1.0866    0.0000 R   0  0  0  0  0  0  0  0  0  0  0  0
    0.4018   -1.5896    0.0000 N   0  0  0  0  0  0  0  0  0  0  0  0
    0.3982   -2.5896    0.0000 C   0  0  0  0  0  0  0  0  0  0  0  0
    1.2696   -1.0928    0.0000 C   0  0  0  0  0  0  0  0  0  0  0  0
    1.2732   -0.0928    0.0000 C   0  0  0  0  0  0  0  0  0  0  0  0
    0.4090    0.4102    0.0000 C   0  0  0  0  0  0  0  0  0  0  0  0
   -0.4588   -0.0866    0.0000 C   0  0  0  0  0  0  0  0  0  0  0  0
   -1.3230    0.4166    0.0000 C   0  0  0  0  0  0  0  0  0  0  0  0
   -1.3194    1.4164    0.0000 C   0  0  0  0  0  0  0  0  0  0  0  0
   -0.4516    1.9134    0.0000 C   0  0  0  0  0  0  0  0  0  0  0  0
    0.4126    1.4102    0.0000 C   0  0  0  0  0  0  0  0  0  0  0  0
   -2.1836    1.9196    0.0000 N   0  0  0  0  0  0  0  0  0  0  0  0
   -3.0514    1.4226    0.0000 C   0  0  0  0  0  0  0  0  0  0  0  0
   -2.1800    2.9196    0.0000 C   0  0  0  0  0  0  0  0  0  0  0  0
    2.1338   -1.5958    0.0000 C   0  0  0  0  0  0  0  0  0  0  0  0
    2.1302   -2.5958    0.0000 R   0  0  0  0  0  0  0  0  0  0  0  0
    3.0016   -1.0990    0.0000 O   0  0  0  0  0  0  0  0  0  0  0  0
  1  2  1  0
  2  3  1  0
  2  4  1  0
  4  5  1  6
  5  6  1  0
  6  7  1  0
  7  8  2  0
  8  9  1  0
  9 10  2  0
 10 11  1  0
  9 12  1  0
 12 13  1  0
 12 14  1  0
  4 15  1  0
 15 16  1  0
 15 17  2  0
 11  6  2  0
M  ISO  2   1   1  16   2
V    1 *
V   16 *
M  END
>  <symbol>  (946) 
D_mePhe_4NMe2

>  <m_Rgroups>  (946) 
[H],[OH],None,None,None,None

>  <m_abbr>  (946) 
D_mePhe_4NMe2

>  <m_name>  (946) 
NMe-D-4-dimethylaminophenylalanine

>  <m_type>  (946) 
aa

>  <m_subtype>  (946) 
modified

>  <m_chem_types>  (946) 
1:backbone_n,2:backbone_c

$$$$

     RDKit          2D

 19 20  0  0  0  0  0  0  0  0999 V2000
   -2.5791   -1.5194    0.0000 R   0  0  0  0  0  0  0  0  0  0  0  0
   -1.7119   -2.0176    0.0000 N   0  0  0  0  0  0  0  0  0  0  0  0
   -1.7099   -3.0176    0.0000 C   0  0  0  0  0  0  0  0  0  0  0  0
   -0.8471   -1.5158    0.0000 C   0  0  0  0  0  0  0  0  0  0  0  0
   -0.8491   -0.5158    0.0000 C   0  0  0  0  0  0  0  0  0  0  0  0
    0.0157   -0.0140    0.0000 C   0  0  0  0  0  0  0  0  0  0  0  0
    0.9301   -0.4186    0.0000 C   0  0  0  0  0  0  0  0  0  0  0  0
    1.5979    0.3258    0.0000 N   0  0  0  0  0  0  0  0  0  0  0  0
    2.5923    0.2236    0.0000 R   0  0  0  0  0  0  0  0  0  0  0  0
    1.0959    1.1908    0.0000 C   0  0  0  0  0  0  0  0  0  0  0  0
    1.4027    2.1424    0.0000 C   0  0  0  0  0  0  0  0  0  0  0  0
    0.7321    2.8842    0.0000 C   0  0  0  0  0  0  0  0  0  0  0  0
   -0.2457    2.6742    0.0000 C   0  0  0  0  0  0  0  0  0  0  0  0
   -0.9163    3.4158    0.0000 F   0  0  0  0  0  0  0  0  0  0  0  0
   -0.5525    1.7224    0.0000 C   0  0  0  0  0  0  0  0  0  0  0  0
    0.1181    0.9808    0.0000 C   0  0  0  0  0  0  0  0  0  0  0  0
    0.0199   -2.0140    0.0000 C   0  0  0  0  0  0  0  0  0  0  0  0
    0.0219   -3.0140    0.0000 R   0  0  0  0  0  0  0  0  0  0  0  0
    0.8849   -1.5124    0.0000 O   0  0  0  0  0  0  0  0  0  0  0  0
  1  2  1  0
  2  3  1  0
  2  4  1  0
  4  5  1  1
  5  6  1  0
  6  7  2  0
  7  8  1  0
  8  9  1  0
  8 10  1  0
 10 11  1  0
 11 12  2  0
 12 13  1  0
 13 14  1  0
 13 15  2  0
 15 16  1  0
  4 17  1  0
 17 18  1  0
 17 19  2  0
 16  6  1  0
 16 10  2  0
M  ISO  3   1   1   9   3  18   2
V    1 *
V    9 *
V   18 *
M  END
>  <symbol>  (947) 
meTrp_6F

>  <m_Rgroups>  (947) 
[H],[OH],[H],None,None,None

>  <m_abbr>  (947) 
meTrp_6F

>  <m_name>  (947) 
NMe-L-6-fluorotryptophan

>  <m_type>  (947) 
aa

>  <m_subtype>  (947) 
modified

>  <m_chem_types>  (947) 
1:backbone_n,2:backbone_c,3:aromatic_nh

$$$$

     RDKit          2D

 19 20  0  0  0  0  0  0  0  0999 V2000
   -2.5791   -1.5194    0.0000 R   0  0  0  0  0  0  0  0  0  0  0  0
   -1.7119   -2.0176    0.0000 N   0  0  0  0  0  0  0  0  0  0  0  0
   -1.7099   -3.0176    0.0000 C   0  0  0  0  0  0  0  0  0  0  0  0
   -0.8471   -1.5158    0.0000 C   0  0  0  0  0  0  0  0  0  0  0  0
   -0.8491   -0.5158    0.0000 C   0  0  0  0  0  0  0  0  0  0  0  0
    0.0157   -0.0140    0.0000 C   0  0  0  0  0  0  0  0  0  0  0  0
    0.9301   -0.4186    0.0000 C   0  0  0  0  0  0  0  0  0  0  0  0
    1.5979    0.3258    0.0000 N   0  0  0  0  0  0  0  0  0  0  0  0
    2.5923    0.2236    0.0000 R   0  0  0  0  0  0  0  0  0  0  0  0
    1.0959    1.1908    0.0000 C   0  0  0  0  0  0  0  0  0  0  0  0
    1.4027    2.1424    0.0000 C   0  0  0  0  0  0  0  0  0  0  0  0
    0.7321    2.8842    0.0000 C   0  0  0  0  0  0  0  0  0  0  0  0
   -0.2457    2.6742    0.0000 C   0  0  0  0  0  0  0  0  0  0  0  0
   -0.9163    3.4158    0.0000 F   0  0  0  0  0  0  0  0  0  0  0  0
   -0.5525    1.7224    0.0000 C   0  0  0  0  0  0  0  0  0  0  0  0
    0.1181    0.9808    0.0000 C   0  0  0  0  0  0  0  0  0  0  0  0
    0.0199   -2.0140    0.0000 C   0  0  0  0  0  0  0  0  0  0  0  0
    0.0219   -3.0140    0.0000 R   0  0  0  0  0  0  0  0  0  0  0  0
    0.8849   -1.5124    0.0000 O   0  0  0  0  0  0  0  0  0  0  0  0
  1  2  1  0
  2  3  1  0
  2  4  1  0
  4  5  1  6
  5  6  1  0
  6  7  2  0
  7  8  1  0
  8  9  1  0
  8 10  1  0
 10 11  1  0
 11 12  2  0
 12 13  1  0
 13 14  1  0
 13 15  2  0
 15 16  1  0
  4 17  1  0
 17 18  1  0
 17 19  2  0
 16  6  1  0
 16 10  2  0
M  ISO  3   1   1   9   3  18   2
V    1 *
V    9 *
V   18 *
M  END
>  <symbol>  (948) 
D_meTrp_6F

>  <m_Rgroups>  (948) 
[H],[OH],[H],None,None,None

>  <m_abbr>  (948) 
D_meTrp_6F

>  <m_name>  (948) 
NMe-D-6-fluorotryptophan

>  <m_type>  (948) 
aa

>  <m_subtype>  (948) 
modified

>  <m_chem_types>  (948) 
1:backbone_n,2:backbone_c,3:aromatic_nh

$$$$

     RDKit          2D

 17 17  0  0  0  0  0  0  0  0999 V2000
   -2.5462   -1.0019    0.0000 R   0  0  0  0  0  0  0  0  0  0  0  0
   -1.6798   -1.5013    0.0000 N   0  0  0  0  0  0  0  0  0  0  0  0
   -1.6790   -2.5013    0.0000 C   0  0  0  0  0  0  0  0  0  0  0  0
   -0.8142   -1.0007    0.0000 C   0  0  0  0  0  0  0  0  0  0  0  0
   -0.8150   -0.0007    0.0000 C   0  0  0  0  0  0  0  0  0  0  0  0
    0.0504    0.5001    0.0000 C   0  0  0  0  0  0  0  0  0  0  0  0
    0.9170    0.0009    0.0000 C   0  0  0  0  0  0  0  0  0  0  0  0
    1.7826    0.5015    0.0000 C   0  0  0  0  0  0  0  0  0  0  0  0
    2.6490    0.0021    0.0000 I   0  0  0  0  0  0  0  0  0  0  0  0
    1.7818    1.5015    0.0000 C   0  0  0  0  0  0  0  0  0  0  0  0
    0.9154    2.0007    0.0000 C   0  0  0  0  0  0  0  0  0  0  0  0
    0.0496    1.5001    0.0000 C   0  0  0  0  0  0  0  0  0  0  0  0
   -0.8166    1.9993    0.0000 O   0  0  0  0  0  0  0  0  0  0  0  0
   -0.8174    2.9993    0.0000 R   0  0  0  0  0  0  0  0  0  0  0  0
    0.0522   -1.4999    0.0000 C   0  0  0  0  0  0  0  0  0  0  0  0
    0.0530   -2.4999    0.0000 R   0  0  0  0  0  0  0  0  0  0  0  0
    0.9178   -0.9993    0.0000 O   0  0  0  0  0  0  0  0  0  0  0  0
  1  2  1  0
  2  3  1  0
  2  4  1  0
  4  5  1  1
  5  6  1  0
  6  7  1  0
  7  8  2  0
  8  9  1  0
  8 10  1  0
 10 11  2  0
 11 12  1  0
 12 13  1  0
 13 14  1  0
  4 15  1  0
 15 16  1  0
 15 17  2  0
 12  6  2  0
M  ISO  3   1   1  14   3  16   2
V    1 *
V   14 *
V   16 *
M  END
>  <symbol>  (949) 
meTyr_3I

>  <m_Rgroups>  (949) 
[H],[OH],[H],None,None,None

>  <m_abbr>  (949) 
meTyr_3I

>  <m_name>  (949) 
NMe-L-3-iodotyrosine

>  <m_type>  (949) 
aa

>  <m_subtype>  (949) 
modified

>  <m_chem_types>  (949) 
1:backbone_n,2:backbone_c,3:hydroxyl_phenolic

$$$$

     RDKit          2D

 17 17  0  0  0  0  0  0  0  0999 V2000
   -2.5462   -1.0019    0.0000 R   0  0  0  0  0  0  0  0  0  0  0  0
   -1.6798   -1.5013    0.0000 N   0  0  0  0  0  0  0  0  0  0  0  0
   -1.6790   -2.5013    0.0000 C   0  0  0  0  0  0  0  0  0  0  0  0
   -0.8142   -1.0007    0.0000 C   0  0  0  0  0  0  0  0  0  0  0  0
   -0.8150   -0.0007    0.0000 C   0  0  0  0  0  0  0  0  0  0  0  0
    0.0504    0.5001    0.0000 C   0  0  0  0  0  0  0  0  0  0  0  0
    0.9170    0.0009    0.0000 C   0  0  0  0  0  0  0  0  0  0  0  0
    1.7826    0.5015    0.0000 C   0  0  0  0  0  0  0  0  0  0  0  0
    2.6490    0.0021    0.0000 I   0  0  0  0  0  0  0  0  0  0  0  0
    1.7818    1.5015    0.0000 C   0  0  0  0  0  0  0  0  0  0  0  0
    0.9154    2.0007    0.0000 C   0  0  0  0  0  0  0  0  0  0  0  0
    0.0496    1.5001    0.0000 C   0  0  0  0  0  0  0  0  0  0  0  0
   -0.8166    1.9993    0.0000 O   0  0  0  0  0  0  0  0  0  0  0  0
   -0.8174    2.9993    0.0000 R   0  0  0  0  0  0  0  0  0  0  0  0
    0.0522   -1.4999    0.0000 C   0  0  0  0  0  0  0  0  0  0  0  0
    0.0530   -2.4999    0.0000 R   0  0  0  0  0  0  0  0  0  0  0  0
    0.9178   -0.9993    0.0000 O   0  0  0  0  0  0  0  0  0  0  0  0
  1  2  1  0
  2  3  1  0
  2  4  1  0
  4  5  1  6
  5  6  1  0
  6  7  1  0
  7  8  2  0
  8  9  1  0
  8 10  1  0
 10 11  2  0
 11 12  1  0
 12 13  1  0
 13 14  1  0
  4 15  1  0
 15 16  1  0
 15 17  2  0
 12  6  2  0
M  ISO  3   1   1  14   3  16   2
V    1 *
V   14 *
V   16 *
M  END
>  <symbol>  (950) 
D_meTyr_3I

>  <m_Rgroups>  (950) 
[H],[OH],[H],None,None,None

>  <m_abbr>  (950) 
D_meTyr_3I

>  <m_name>  (950) 
NMe-D-3-iodotyrosine

>  <m_type>  (950) 
aa

>  <m_subtype>  (950) 
modified

>  <m_chem_types>  (950) 
1:backbone_n,2:backbone_c,3:hydroxyl_phenolic

$$$$

     RDKit          2D

  9  8  0  0  0  0  0  0  0  0999 V2000
    2.1170    0.1095    0.0000 R   0  0  0  0  0  0  0  0  0  0  0  0
    1.2506   -0.3899    0.0000 N   0  0  0  0  0  0  0  0  0  0  0  0
    1.2498   -1.3899    0.0000 R   0  0  0  0  0  0  0  0  0  0  0  0
    0.3850    0.1107    0.0000 C   0  0  0  0  0  0  0  0  0  0  0  0
    0.3858    1.1107    0.0000 C   0  0  0  0  0  0  0  0  0  0  0  0
   -0.4814   -0.3885    0.0000 C   0  0  0  0  0  0  0  0  0  0  0  0
   -1.3470    0.1121    0.0000 C   0  0  0  0  0  0  0  0  0  0  0  0
   -2.2134   -0.3871    0.0000 R   0  0  0  0  0  0  0  0  0  0  0  0
   -1.3462    1.1121    0.0000 O   0  0  0  0  0  0  0  0  0  0  0  0
  1  2  1  0
  2  3  1  0
  2  4  1  0
  4  5  1  1
  4  6  1  0
  6  7  1  0
  7  8  1  0
  7  9  2  0
M  ISO  3   1   1   3   3   8   2
V    1 *
V    3 *
V    8 *
M  END
>  <symbol>  (951) 
D_bAbu

>  <m_Rgroups>  (951) 
[H],[OH],[H],None,None,None

>  <m_abbr>  (951) 
D_bAbu

>  <m_name>  (951) 
D-3-aminobutyric acid (D-beta-aminobutyric acid)

>  <m_type>  (951) 
aa

>  <m_subtype>  (951) 
modified

>  <m_chem_types>  (951) 
1:backbone_n,2:backbone_c,3:backbone_n_mod

$$$$

     RDKit          2D

 13 12  0  0  0  0  0  0  0  0999 V2000
   -4.0960   -0.1954    0.0000 R   0  0  0  0  0  0  0  0  0  0  0  0
   -2.7929   -0.9383    0.0000 N   0  0  0  0  0  0  0  0  0  0  0  0
   -2.7847   -2.4383    0.0000 R   0  0  0  0  0  0  0  0  0  0  0  0
   -1.4979   -0.1812    0.0000 C   0  0  0  0  0  0  0  0  0  0  0  0
   -0.1948   -0.9242    0.0000 C   0  0  0  0  0  0  0  0  0  0  0  0
    1.1001   -0.1671    0.0000 C   0  0  0  0  0  0  0  0  0  0  0  0
    2.4032   -0.9100    0.0000 C   0  0  0  0  0  0  0  0  0  0  0  0
    3.6982   -0.1529    0.0000 C   0  0  0  0  0  0  0  0  0  0  0  0
    5.0013   -0.8959    0.0000 R   0  0  0  0  0  0  0  0  0  0  0  0
    3.6900    1.3470    0.0000 O   0  0  0  0  0  0  0  0  0  0  0  0
   -1.5061    1.3187    0.0000 C   0  0  0  0  0  0  0  0  0  0  0  0
   -0.2112    2.0758    0.0000 R   0  0  0  0  0  0  0  0  0  0  0  0
   -2.8092    2.0617    0.0000 O   0  0  0  0  0  0  0  0  0  0  0  0
  1  2  1  0
  2  3  1  0
  2  4  1  0
  4  5  1  6
  5  6  1  0
  6  7  1  0
  7  8  1  0
  8  9  1  0
  8 10  2  0
  4 11  1  0
 11 12  1  0
 11 13  2  0
M  ISO  4   1   1   3   3   9   4  12   2
V    1 *
V    3 *
V    9 *
V   12 *
M  END
>  <symbol>  (954) 
hGlu

>  <m_Rgroups>  (954) 
[H],[OH],[H],[OH],None,None

>  <m_abbr>  (954) 
hGlu

>  <m_name>  (954) 
L-homoglutamate (2-aminoadipic acid)

>  <m_type>  (954) 
aa

>  <m_subtype>  (954) 
modified

>  <m_chem_types>  (954) 
1:backbone_n,2:backbone_c,3:backbone_n_mod,4:carboxyl

$$$$

     RDKit          2D

 13 12  0  0  0  0  0  0  0  0999 V2000
   -4.0960   -0.1954    0.0000 R   0  0  0  0  0  0  0  0  0  0  0  0
   -2.7929   -0.9383    0.0000 N   0  0  0  0  0  0  0  0  0  0  0  0
   -2.7847   -2.4383    0.0000 R   0  0  0  0  0  0  0  0  0  0  0  0
   -1.4979   -0.1812    0.0000 C   0  0  0  0  0  0  0  0  0  0  0  0
   -0.1948   -0.9242    0.0000 C   0  0  0  0  0  0  0  0  0  0  0  0
    1.1001   -0.1671    0.0000 C   0  0  0  0  0  0  0  0  0  0  0  0
    2.4032   -0.9100    0.0000 C   0  0  0  0  0  0  0  0  0  0  0  0
    3.6982   -0.1529    0.0000 C   0  0  0  0  0  0  0  0  0  0  0  0
    5.0013   -0.8959    0.0000 R   0  0  0  0  0  0  0  0  0  0  0  0
    3.6900    1.3470    0.0000 O   0  0  0  0  0  0  0  0  0  0  0  0
   -1.5061    1.3187    0.0000 C   0  0  0  0  0  0  0  0  0  0  0  0
   -0.2112    2.0758    0.0000 R   0  0  0  0  0  0  0  0  0  0  0  0
   -2.8092    2.0617    0.0000 O   0  0  0  0  0  0  0  0  0  0  0  0
  1  2  1  0
  2  3  1  0
  2  4  1  0
  4  5  1  1
  5  6  1  0
  6  7  1  0
  7  8  1  0
  8  9  1  0
  8 10  2  0
  4 11  1  0
 11 12  1  0
 11 13  2  0
M  ISO  4   1   1   3   3   9   4  12   2
V    1 *
V    3 *
V    9 *
V   12 *
M  END
>  <symbol>  (955) 
D_hGlu

>  <m_Rgroups>  (955) 
[H],[OH],[H],[OH],None,None

>  <m_abbr>  (955) 
D_hGlu

>  <m_name>  (955) 
D-homoglutamate

>  <m_type>  (955) 
aa

>  <m_subtype>  (955) 
modified

>  <m_chem_types>  (955) 
1:backbone_n,2:backbone_c,3:backbone_n_mod,4:carboxyl

$$$$

     RDKit          2D

 20 21  0  0  0  0  0  0  0  0999 V2000
    0.1355   -3.5632    0.0000 R   0  0  0  0  0  0  0  0  0  0  0  0
    0.1307   -2.5632    0.0000 N   0  0  0  0  0  0  0  0  0  0  0  0
   -0.7379   -2.0674    0.0000 R   0  0  0  0  0  0  0  0  0  0  0  0
    0.9943   -2.0590    0.0000 C   0  0  0  0  0  0  0  0  0  0  0  0
    0.9893   -1.0590    0.0000 C   0  0  0  0  0  0  0  0  0  0  0  0
    0.1207   -0.5632    0.0000 C   0  0  0  0  0  0  0  0  0  0  0  0
    0.1159    0.4366    0.0000 C   0  0  0  0  0  0  0  0  0  0  0  0
    0.9217    1.0286    0.0000 C   0  0  0  0  0  0  0  0  0  0  0  0
    0.6083    1.9780    0.0000 N   0  0  0  0  0  0  0  0  0  0  0  0
    1.1919    2.7898    0.0000 R   0  0  0  0  0  0  0  0  0  0  0  0
   -0.3917    1.9730    0.0000 C   0  0  0  0  0  0  0  0  0  0  0  0
   -1.0645    2.7128    0.0000 C   0  0  0  0  0  0  0  0  0  0  0  0
   -2.0417    2.5002    0.0000 C   0  0  0  0  0  0  0  0  0  0  0  0
   -2.7145    3.2398    0.0000 F   0  0  0  0  0  0  0  0  0  0  0  0
   -2.3459    1.5474    0.0000 C   0  0  0  0  0  0  0  0  0  0  0  0
   -1.6731    0.8078    0.0000 C   0  0  0  0  0  0  0  0  0  0  0  0
   -0.6961    1.0204    0.0000 C   0  0  0  0  0  0  0  0  0  0  0  0
    1.8627   -2.5548    0.0000 C   0  0  0  0  0  0  0  0  0  0  0  0
    1.8677   -3.5546    0.0000 R   0  0  0  0  0  0  0  0  0  0  0  0
    2.7263   -2.0506    0.0000 O   0  0  0  0  0  0  0  0  0  0  0  0
  1  2  1  0
  2  3  1  0
  2  4  1  0
  4  5  1  1
  5  6  1  0
  6  7  1  0
  7  8  2  0
  8  9  1  0
  9 10  1  0
  9 11  1  0
 11 12  1  0
 12 13  2  0
 13 14  1  0
 13 15  1  0
 15 16  2  0
 16 17  1  0
  4 18  1  0
 18 19  1  0
 18 20  2  0
 17  7  1  0
 17 11  2  0
M  ISO  4   1   1   3   3  10   4  19   2
V    1 *
V    3 *
V   10 *
V   19 *
M  END
>  <symbol>  (956) 
hTrp_5F

>  <m_Rgroups>  (956) 
[H],[OH],[H],[H],None,None

>  <m_abbr>  (956) 
hTrp_5F

>  <m_name>  (956) 
L-homo-5-fluorotryptophan

>  <m_type>  (956) 
aa

>  <m_subtype>  (956) 
modified

>  <m_chem_types>  (956) 
1:backbone_n,2:backbone_c,3:backbone_n_mod,4:aromatic_nh

$$$$

     RDKit          2D

 20 21  0  0  0  0  0  0  0  0999 V2000
    0.1355   -3.5632    0.0000 R   0  0  0  0  0  0  0  0  0  0  0  0
    0.1307   -2.5632    0.0000 N   0  0  0  0  0  0  0  0  0  0  0  0
   -0.7379   -2.0674    0.0000 R   0  0  0  0  0  0  0  0  0  0  0  0
    0.9943   -2.0590    0.0000 C   0  0  0  0  0  0  0  0  0  0  0  0
    0.9893   -1.0590    0.0000 C   0  0  0  0  0  0  0  0  0  0  0  0
    0.1207   -0.5632    0.0000 C   0  0  0  0  0  0  0  0  0  0  0  0
    0.1159    0.4366    0.0000 C   0  0  0  0  0  0  0  0  0  0  0  0
    0.9217    1.0286    0.0000 C   0  0  0  0  0  0  0  0  0  0  0  0
    0.6083    1.9780    0.0000 N   0  0  0  0  0  0  0  0  0  0  0  0
    1.1919    2.7898    0.0000 R   0  0  0  0  0  0  0  0  0  0  0  0
   -0.3917    1.9730    0.0000 C   0  0  0  0  0  0  0  0  0  0  0  0
   -1.0645    2.7128    0.0000 C   0  0  0  0  0  0  0  0  0  0  0  0
   -2.0417    2.5002    0.0000 C   0  0  0  0  0  0  0  0  0  0  0  0
   -2.7145    3.2398    0.0000 F   0  0  0  0  0  0  0  0  0  0  0  0
   -2.3459    1.5474    0.0000 C   0  0  0  0  0  0  0  0  0  0  0  0
   -1.6731    0.8078    0.0000 C   0  0  0  0  0  0  0  0  0  0  0  0
   -0.6961    1.0204    0.0000 C   0  0  0  0  0  0  0  0  0  0  0  0
    1.8627   -2.5548    0.0000 C   0  0  0  0  0  0  0  0  0  0  0  0
    1.8677   -3.5546    0.0000 R   0  0  0  0  0  0  0  0  0  0  0  0
    2.7263   -2.0506    0.0000 O   0  0  0  0  0  0  0  0  0  0  0  0
  1  2  1  0
  2  3  1  0
  2  4  1  0
  4  5  1  6
  5  6  1  0
  6  7  1  0
  7  8  2  0
  8  9  1  0
  9 10  1  0
  9 11  1  0
 11 12  1  0
 12 13  2  0
 13 14  1  0
 13 15  1  0
 15 16  2  0
 16 17  1  0
  4 18  1  0
 18 19  1  0
 18 20  2  0
 17  7  1  0
 17 11  2  0
M  ISO  4   1   1   3   3  10   4  19   2
V    1 *
V    3 *
V   10 *
V   19 *
M  END
>  <symbol>  (957) 
D_hTrp_5F

>  <m_Rgroups>  (957) 
[H],[OH],[H],[H],None,None

>  <m_abbr>  (957) 
D_hTrp_5F

>  <m_name>  (957) 
D-homo-5-fluorotryptophan

>  <m_type>  (957) 
aa

>  <m_subtype>  (957) 
modified

>  <m_chem_types>  (957) 
1:backbone_n,2:backbone_c,3:backbone_n_mod,4:aromatic_nh

$$$$

     RDKit          2D

 18 18  0  0  0  0  0  0  0  0999 V2000
   -0.7841   -1.6657    0.0000 R   0  0  0  0  0  0  0  0  0  0  0  0
    0.1813   -1.9263    0.0000 N   0  0  0  0  0  0  0  0  0  0  0  0
    0.4385   -2.8925    0.0000 R   0  0  0  0  0  0  0  0  0  0  0  0
    0.8897   -1.2203    0.0000 C   0  0  0  0  0  0  0  0  0  0  0  0
   -0.0757   -0.9599    0.0000 C   0  0  0  0  0  0  0  0  0  0  0  0
    1.1503   -0.2549    0.0000 C   0  0  0  0  0  0  0  0  0  0  0  0
    0.4445    0.4535    0.0000 C   0  0  0  0  0  0  0  0  0  0  0  0
   -0.5219    0.1963    0.0000 C   0  0  0  0  0  0  0  0  0  0  0  0
   -1.2277    0.9047    0.0000 C   0  0  0  0  0  0  0  0  0  0  0  0
   -0.9671    1.8701    0.0000 C   0  0  0  0  0  0  0  0  0  0  0  0
   -1.6731    2.5785    0.0000 N   0  0  0  0  0  0  0  0  0  0  0  0
   -2.6393    2.3213    0.0000 O   0  0  0  0  0  0  0  0  0  0  0  0
   -1.4125    3.5439    0.0000 O   0  0  0  0  0  0  0  0  0  0  0  0
   -0.0007    2.1271    0.0000 C   0  0  0  0  0  0  0  0  0  0  0  0
    0.7051    1.4189    0.0000 C   0  0  0  0  0  0  0  0  0  0  0  0
    1.5955   -1.9287    0.0000 C   0  0  0  0  0  0  0  0  0  0  0  0
    1.3351   -2.8941    0.0000 R   0  0  0  0  0  0  0  0  0  0  0  0
    2.5619   -1.6717    0.0000 O   0  0  0  0  0  0  0  0  0  0  0  0
  1  2  1  0
  2  3  1  0
  2  4  1  0
  4  5  1  6
  4  6  1  0
  6  7  1  0
  7  8  1  0
  8  9  2  0
  9 10  1  0
 10 11  1  0
 11 12  2  0
 11 13  1  0
 10 14  2  0
 14 15  1  0
  4 16  1  0
 16 17  1  0
 16 18  2  0
 15  7  2  0
M  CHG  2  11   1  13  -1
M  ISO  3   1   1   3   3  17   2
V    1 *
V    3 *
V   17 *
M  END
>  <symbol>  (958) 
aMePhe_4NO2

>  <m_Rgroups>  (958) 
[H],[OH],[H],None,None,None

>  <m_abbr>  (958) 
aMePhe_4NO2

>  <m_name>  (958) 
L-alpha-methyl-4-nitrophenylalanine

>  <m_type>  (958) 
aa

>  <m_subtype>  (958) 
modified

>  <m_chem_types>  (958) 
1:backbone_n,2:backbone_c,3:backbone_n_mod

$$$$

     RDKit          2D

 18 18  0  0  0  0  0  0  0  0999 V2000
   -0.7841   -1.6657    0.0000 R   0  0  0  0  0  0  0  0  0  0  0  0
    0.1813   -1.9263    0.0000 N   0  0  0  0  0  0  0  0  0  0  0  0
    0.4385   -2.8925    0.0000 R   0  0  0  0  0  0  0  0  0  0  0  0
    0.8897   -1.2203    0.0000 C   0  0  0  0  0  0  0  0  0  0  0  0
   -0.0757   -0.9599    0.0000 C   0  0  0  0  0  0  0  0  0  0  0  0
    1.1503   -0.2549    0.0000 C   0  0  0  0  0  0  0  0  0  0  0  0
    0.4445    0.4535    0.0000 C   0  0  0  0  0  0  0  0  0  0  0  0
   -0.5219    0.1963    0.0000 C   0  0  0  0  0  0  0  0  0  0  0  0
   -1.2277    0.9047    0.0000 C   0  0  0  0  0  0  0  0  0  0  0  0
   -0.9671    1.8701    0.0000 C   0  0  0  0  0  0  0  0  0  0  0  0
   -1.6731    2.5785    0.0000 N   0  0  0  0  0  0  0  0  0  0  0  0
   -2.6393    2.3213    0.0000 O   0  0  0  0  0  0  0  0  0  0  0  0
   -1.4125    3.5439    0.0000 O   0  0  0  0  0  0  0  0  0  0  0  0
   -0.0007    2.1271    0.0000 C   0  0  0  0  0  0  0  0  0  0  0  0
    0.7051    1.4189    0.0000 C   0  0  0  0  0  0  0  0  0  0  0  0
    1.5955   -1.9287    0.0000 C   0  0  0  0  0  0  0  0  0  0  0  0
    1.3351   -2.8941    0.0000 R   0  0  0  0  0  0  0  0  0  0  0  0
    2.5619   -1.6717    0.0000 O   0  0  0  0  0  0  0  0  0  0  0  0
  1  2  1  0
  2  3  1  0
  2  4  1  0
  4  5  1  1
  4  6  1  0
  6  7  1  0
  7  8  1  0
  8  9  2  0
  9 10  1  0
 10 11  1  0
 11 12  2  0
 11 13  1  0
 10 14  2  0
 14 15  1  0
  4 16  1  0
 16 17  1  0
 16 18  2  0
 15  7  2  0
M  CHG  2  11   1  13  -1
M  ISO  3   1   1   3   3  17   2
V    1 *
V    3 *
V   17 *
M  END
>  <symbol>  (959) 
D_aMePhe_4NO2

>  <m_Rgroups>  (959) 
[H],[OH],[H],None,None,None

>  <m_abbr>  (959) 
D_aMePhe_4NO2

>  <m_name>  (959) 
D-alpha-methyl-4-nitrophenylalanine

>  <m_type>  (959) 
aa

>  <m_subtype>  (959) 
modified

>  <m_chem_types>  (959) 
1:backbone_n,2:backbone_c,3:backbone_n_mod

$$$$

     RDKit          2D

 18 18  0  0  0  0  0  0  0  0999 V2000
   -0.3806    1.0518    0.0000 R   0  0  0  0  0  0  0  0  0  0  0  0
   -1.3593    1.1559    0.0000 N   0  0  0  0  0  0  0  0  0  0  0  0
   -1.6178    2.6335    0.0000 R   0  0  0  0  0  0  0  0  0  0  0  0
   -2.5096    0.1932    0.0000 C   0  0  0  0  0  0  0  0  0  0  0  0
   -3.4723    1.3436    0.0000 C   0  0  0  0  0  0  0  0  0  0  0  0
   -1.5469   -0.9571    0.0000 C   0  0  0  0  0  0  0  0  0  0  0  0
   -0.0694   -0.6985    0.0000 C   0  0  0  0  0  0  0  0  0  0  0  0
    0.4455    0.7103    0.0000 C   0  0  0  0  0  0  0  0  0  0  0  0
    1.9231    0.9689    0.0000 C   0  0  0  0  0  0  0  0  0  0  0  0
    2.8857   -0.1814    0.0000 C   0  0  0  0  0  0  0  0  0  0  0  0
    4.3633    0.0771    0.0000 N   0  0  0  0  0  0  0  0  0  0  0  0
    5.3260   -1.0732    0.0000 R   0  0  0  0  0  0  0  0  0  0  0  0
    4.8782    1.4860    0.0000 R   0  0  0  0  0  0  0  0  0  0  0  0
    2.3709   -1.5903    0.0000 C   0  0  0  0  0  0  0  0  0  0  0  0
    0.8933   -1.8488    0.0000 C   0  0  0  0  0  0  0  0  0  0  0  0
   -3.6599   -0.7695    0.0000 C   0  0  0  0  0  0  0  0  0  0  0  0
   -5.0688   -0.2546    0.0000 R   0  0  0  0  0  0  0  0  0  0  0  0
   -3.4014   -2.2470    0.0000 O   0  0  0  0  0  0  0  0  0  0  0  0
  1  2  1  0
  2  3  1  0
  2  4  1  0
  4  5  1  6
  4  6  1  0
  6  7  1  0
  7  8  1  0
  8  9  2  0
  9 10  1  0
 10 11  1  0
 11 12  1  0
 11 13  1  0
 10 14  2  0
 14 15  1  0
  4 16  1  0
 16 17  1  0
 16 18  2  0
 15  7  2  0
M  ISO  5   1   1   3   3  12   4  13   5  17   2
V    1 *
V    3 *
V   12 *
V   13 *
V   17 *
M  END
>  <symbol>  (960) 
aMePhe_4NH2

>  <m_Rgroups>  (960) 
[H],[OH],[H],[H],[H],None

>  <m_abbr>  (960) 
aMePhe_4NH2

>  <m_name>  (960) 
L-alpha-methyl-4-aminophenylalanine

>  <m_type>  (960) 
aa

>  <m_subtype>  (960) 
modified

>  <m_chem_types>  (960) 
1:backbone_n,2:backbone_c,3:backbone_n_mod

$$$$

     RDKit          2D

 18 18  0  0  0  0  0  0  0  0999 V2000
   -0.3806    1.0518    0.0000 R   0  0  0  0  0  0  0  0  0  0  0  0
   -1.3593    1.1559    0.0000 N   0  0  0  0  0  0  0  0  0  0  0  0
   -1.6178    2.6335    0.0000 R   0  0  0  0  0  0  0  0  0  0  0  0
   -2.5096    0.1932    0.0000 C   0  0  0  0  0  0  0  0  0  0  0  0
   -3.4723    1.3436    0.0000 C   0  0  0  0  0  0  0  0  0  0  0  0
   -1.5469   -0.9571    0.0000 C   0  0  0  0  0  0  0  0  0  0  0  0
   -0.0694   -0.6985    0.0000 C   0  0  0  0  0  0  0  0  0  0  0  0
    0.4455    0.7103    0.0000 C   0  0  0  0  0  0  0  0  0  0  0  0
    1.9231    0.9689    0.0000 C   0  0  0  0  0  0  0  0  0  0  0  0
    2.8857   -0.1814    0.0000 C   0  0  0  0  0  0  0  0  0  0  0  0
    4.3633    0.0771    0.0000 N   0  0  0  0  0  0  0  0  0  0  0  0
    5.3260   -1.0732    0.0000 R   0  0  0  0  0  0  0  0  0  0  0  0
    4.8782    1.4860    0.0000 R   0  0  0  0  0  0  0  0  0  0  0  0
    2.3709   -1.5903    0.0000 C   0  0  0  0  0  0  0  0  0  0  0  0
    0.8933   -1.8488    0.0000 C   0  0  0  0  0  0  0  0  0  0  0  0
   -3.6599   -0.7695    0.0000 C   0  0  0  0  0  0  0  0  0  0  0  0
   -5.0688   -0.2546    0.0000 R   0  0  0  0  0  0  0  0  0  0  0  0
   -3.4014   -2.2470    0.0000 O   0  0  0  0  0  0  0  0  0  0  0  0
  1  2  1  0
  2  3  1  0
  2  4  1  0
  4  5  1  1
  4  6  1  0
  6  7  1  0
  7  8  1  0
  8  9  2  0
  9 10  1  0
 10 11  1  0
 11 12  1  0
 11 13  1  0
 10 14  2  0
 14 15  1  0
  4 16  1  0
 16 17  1  0
 16 18  2  0
 15  7  2  0
M  ISO  5   1   1   3   3  12   4  13   5  17   2
V    1 *
V    3 *
V   12 *
V   13 *
V   17 *
M  END
>  <symbol>  (961) 
D_aMePhe_4NH2

>  <m_Rgroups>  (961) 
[H],[OH],[H],[H],[H],None

>  <m_abbr>  (961) 
D_aMePhe_4NH2

>  <m_name>  (961) 
D-alpha-methyl-4-aminophenylalanine

>  <m_type>  (961) 
aa

>  <m_subtype>  (961) 
modified

>  <m_chem_types>  (961) 
1:backbone_n,2:backbone_c,3:backbone_n_mod

$$$$

     RDKit          2D

 16 16  0  0  0  0  0  0  0  0999 V2000
   -1.6280    1.1817    0.0000 R   0  0  0  0  0  0  0  0  0  0  0  0
   -0.7602    0.6847    0.0000 N   0  0  0  0  0  0  0  0  0  0  0  0
    0.1040    1.1879    0.0000 R   0  0  0  0  0  0  0  0  0  0  0  0
   -0.7566   -0.3153    0.0000 C   0  0  0  0  0  0  0  0  0  0  0  0
   -1.6208   -0.8183    0.0000 C   0  0  0  0  0  0  0  0  0  0  0  0
   -2.4886   -0.3215    0.0000 C   0  0  0  0  0  0  0  0  0  0  0  0
   -3.3528   -0.8245    0.0000 R   0  0  0  0  0  0  0  0  0  0  0  0
   -2.4922    0.6785    0.0000 O   0  0  0  0  0  0  0  0  0  0  0  0
    0.1112   -0.8121    0.0000 C   0  0  0  0  0  0  0  0  0  0  0  0
    0.9754   -0.3091    0.0000 C   0  0  0  0  0  0  0  0  0  0  0  0
    0.9718    0.6909    0.0000 C   0  0  0  0  0  0  0  0  0  0  0  0
    1.8360    1.1941    0.0000 C   0  0  0  0  0  0  0  0  0  0  0  0
    2.7038    0.6973    0.0000 C   0  0  0  0  0  0  0  0  0  0  0  0
    2.7074   -0.3027    0.0000 C   0  0  0  0  0  0  0  0  0  0  0  0
    1.8432   -0.8059    0.0000 C   0  0  0  0  0  0  0  0  0  0  0  0
    1.8468   -1.8059    0.0000 F   0  0  0  0  0  0  0  0  0  0  0  0
  1  2  1  0
  2  3  1  0
  2  4  1  0
  4  5  1  1
  5  6  1  0
  6  7  1  0
  6  8  2  0
  4  9  1  0
  9 10  1  0
 10 11  2  0
 11 12  1  0
 12 13  2  0
 13 14  1  0
 14 15  2  0
 15 16  1  0
 15 10  1  0
M  ISO  3   1   1   3   3   7   2
V    1 *
V    3 *
V    7 *
M  END
>  <symbol>  (962) 
b3hPhe_2F

>  <m_Rgroups>  (962) 
[H],[OH],[H],None,None,None

>  <m_abbr>  (962) 
b3hPhe_2F

>  <m_name>  (962) 
L-beta3-homo-2-fluorophenylalanine

>  <m_type>  (962) 
aa

>  <m_subtype>  (962) 
modified

>  <m_chem_types>  (962) 
1:backbone_n,2:backbone_c,3:backbone_n_mod

$$$$

     RDKit          2D

 16 16  0  0  0  0  0  0  0  0999 V2000
   -1.6280    1.1817    0.0000 R   0  0  0  0  0  0  0  0  0  0  0  0
   -0.7602    0.6847    0.0000 N   0  0  0  0  0  0  0  0  0  0  0  0
    0.1040    1.1879    0.0000 R   0  0  0  0  0  0  0  0  0  0  0  0
   -0.7566   -0.3153    0.0000 C   0  0  0  0  0  0  0  0  0  0  0  0
   -1.6208   -0.8183    0.0000 C   0  0  0  0  0  0  0  0  0  0  0  0
   -2.4886   -0.3215    0.0000 C   0  0  0  0  0  0  0  0  0  0  0  0
   -3.3528   -0.8245    0.0000 R   0  0  0  0  0  0  0  0  0  0  0  0
   -2.4922    0.6785    0.0000 O   0  0  0  0  0  0  0  0  0  0  0  0
    0.1112   -0.8121    0.0000 C   0  0  0  0  0  0  0  0  0  0  0  0
    0.9754   -0.3091    0.0000 C   0  0  0  0  0  0  0  0  0  0  0  0
    0.9718    0.6909    0.0000 C   0  0  0  0  0  0  0  0  0  0  0  0
    1.8360    1.1941    0.0000 C   0  0  0  0  0  0  0  0  0  0  0  0
    2.7038    0.6973    0.0000 C   0  0  0  0  0  0  0  0  0  0  0  0
    2.7074   -0.3027    0.0000 C   0  0  0  0  0  0  0  0  0  0  0  0
    1.8432   -0.8059    0.0000 C   0  0  0  0  0  0  0  0  0  0  0  0
    1.8468   -1.8059    0.0000 F   0  0  0  0  0  0  0  0  0  0  0  0
  1  2  1  0
  2  3  1  0
  2  4  1  0
  4  5  1  6
  5  6  1  0
  6  7  1  0
  6  8  2  0
  4  9  1  0
  9 10  1  0
 10 11  2  0
 11 12  1  0
 12 13  2  0
 13 14  1  0
 14 15  2  0
 15 16  1  0
 15 10  1  0
M  ISO  3   1   1   3   3   7   2
V    1 *
V    3 *
V    7 *
M  END
>  <symbol>  (963) 
D_b3hPhe_2F

>  <m_Rgroups>  (963) 
[H],[OH],[H],None,None,None

>  <m_abbr>  (963) 
D_b3hPhe_2F

>  <m_name>  (963) 
D-beta3-homo-2-fluorophenylalanine

>  <m_type>  (963) 
aa

>  <m_subtype>  (963) 
modified

>  <m_chem_types>  (963) 
1:backbone_n,2:backbone_c,3:backbone_n_mod

$$$$

     RDKit          2D

 16 16  0  0  0  0  0  0  0  0999 V2000
    1.7361    1.1188    0.0000 R   0  0  0  0  0  0  0  0  0  0  0  0
    0.8683    0.6218    0.0000 N   0  0  0  0  0  0  0  0  0  0  0  0
    0.0041    1.1250    0.0000 R   0  0  0  0  0  0  0  0  0  0  0  0
    0.8647   -0.3782    0.0000 C   0  0  0  0  0  0  0  0  0  0  0  0
    1.7289   -0.8812    0.0000 C   0  0  0  0  0  0  0  0  0  0  0  0
    2.5967   -0.3844    0.0000 C   0  0  0  0  0  0  0  0  0  0  0  0
    3.4609   -0.8874    0.0000 R   0  0  0  0  0  0  0  0  0  0  0  0
    2.6003    0.6156    0.0000 O   0  0  0  0  0  0  0  0  0  0  0  0
   -0.0031   -0.8750    0.0000 C   0  0  0  0  0  0  0  0  0  0  0  0
   -0.8673   -0.3720    0.0000 C   0  0  0  0  0  0  0  0  0  0  0  0
   -0.8639    0.6280    0.0000 C   0  0  0  0  0  0  0  0  0  0  0  0
   -1.7279    1.1312    0.0000 C   0  0  0  0  0  0  0  0  0  0  0  0
   -2.5959    0.6342    0.0000 C   0  0  0  0  0  0  0  0  0  0  0  0
   -2.5993   -0.3656    0.0000 C   0  0  0  0  0  0  0  0  0  0  0  0
   -3.4673   -0.8626    0.0000 F   0  0  0  0  0  0  0  0  0  0  0  0
   -1.7351   -0.8688    0.0000 C   0  0  0  0  0  0  0  0  0  0  0  0
  1  2  1  0
  2  3  1  0
  2  4  1  0
  4  5  1  6
  5  6  1  0
  6  7  1  0
  6  8  2  0
  4  9  1  0
  9 10  1  0
 10 11  2  0
 11 12  1  0
 12 13  2  0
 13 14  1  0
 14 15  1  0
 14 16  2  0
 16 10  1  0
M  ISO  3   1   1   3   3   7   2
V    1 *
V    3 *
V    7 *
M  END
>  <symbol>  (964) 
b3hPhe_3F

>  <m_Rgroups>  (964) 
[H],[OH],[H],None,None,None

>  <m_abbr>  (964) 
b3hPhe_3F

>  <m_name>  (964) 
L-beta3-homo-3-fluorophenylalanine

>  <m_type>  (964) 
aa

>  <m_subtype>  (964) 
modified

>  <m_chem_types>  (964) 
1:backbone_n,2:backbone_c,3:backbone_n_mod

$$$$

     RDKit          2D

 16 16  0  0  0  0  0  0  0  0999 V2000
    1.7361    1.1188    0.0000 R   0  0  0  0  0  0  0  0  0  0  0  0
    0.8683    0.6218    0.0000 N   0  0  0  0  0  0  0  0  0  0  0  0
    0.0041    1.1250    0.0000 R   0  0  0  0  0  0  0  0  0  0  0  0
    0.8647   -0.3782    0.0000 C   0  0  0  0  0  0  0  0  0  0  0  0
    1.7289   -0.8812    0.0000 C   0  0  0  0  0  0  0  0  0  0  0  0
    2.5967   -0.3844    0.0000 C   0  0  0  0  0  0  0  0  0  0  0  0
    3.4609   -0.8874    0.0000 R   0  0  0  0  0  0  0  0  0  0  0  0
    2.6003    0.6156    0.0000 O   0  0  0  0  0  0  0  0  0  0  0  0
   -0.0031   -0.8750    0.0000 C   0  0  0  0  0  0  0  0  0  0  0  0
   -0.8673   -0.3720    0.0000 C   0  0  0  0  0  0  0  0  0  0  0  0
   -0.8639    0.6280    0.0000 C   0  0  0  0  0  0  0  0  0  0  0  0
   -1.7279    1.1312    0.0000 C   0  0  0  0  0  0  0  0  0  0  0  0
   -2.5959    0.6342    0.0000 C   0  0  0  0  0  0  0  0  0  0  0  0
   -2.5993   -0.3656    0.0000 C   0  0  0  0  0  0  0  0  0  0  0  0
   -3.4673   -0.8626    0.0000 F   0  0  0  0  0  0  0  0  0  0  0  0
   -1.7351   -0.8688    0.0000 C   0  0  0  0  0  0  0  0  0  0  0  0
  1  2  1  0
  2  3  1  0
  2  4  1  0
  4  5  1  1
  5  6  1  0
  6  7  1  0
  6  8  2  0
  4  9  1  0
  9 10  1  0
 10 11  2  0
 11 12  1  0
 12 13  2  0
 13 14  1  0
 14 15  1  0
 14 16  2  0
 16 10  1  0
M  ISO  3   1   1   3   3   7   2
V    1 *
V    3 *
V    7 *
M  END
>  <symbol>  (965) 
D_b3hPhe_3F

>  <m_Rgroups>  (965) 
[H],[OH],[H],None,None,None

>  <m_abbr>  (965) 
D_b3hPhe_3F

>  <m_name>  (965) 
D-beta3-homo-3-fluorophenylalanine

>  <m_type>  (965) 
aa

>  <m_subtype>  (965) 
modified

>  <m_chem_types>  (965) 
1:backbone_n,2:backbone_c,3:backbone_n_mod

$$$$

     RDKit          2D

 16 16  0  0  0  0  0  0  0  0999 V2000
   -0.7570   -0.8755    0.0000 R   0  0  0  0  0  0  0  0  0  0  0  0
    0.1094   -1.3750    0.0000 N   0  0  0  0  0  0  0  0  0  0  0  0
    0.1102   -2.3750    0.0000 C   0  0  0  0  0  0  0  0  0  0  0  0
    0.9750   -0.8741    0.0000 C   0  0  0  0  0  0  0  0  0  0  0  0
    0.9742    0.1259    0.0000 C   0  0  0  0  0  0  0  0  0  0  0  0
    0.1078    0.6251    0.0000 C   0  0  0  0  0  0  0  0  0  0  0  0
    0.1070    1.6250    0.0000 C   0  0  0  0  0  0  0  0  0  0  0  0
   -0.7594    2.1243    0.0000 C   0  0  0  0  0  0  0  0  0  0  0  0
   -0.7602    3.1244    0.0000 F   0  0  0  0  0  0  0  0  0  0  0  0
   -1.6252    1.6236    0.0000 C   0  0  0  0  0  0  0  0  0  0  0  0
   -1.6244    0.6237    0.0000 C   0  0  0  0  0  0  0  0  0  0  0  0
   -2.4898    0.1231    0.0000 F   0  0  0  0  0  0  0  0  0  0  0  0
   -0.7578    0.1245    0.0000 C   0  0  0  0  0  0  0  0  0  0  0  0
    1.8414   -1.3735    0.0000 C   0  0  0  0  0  0  0  0  0  0  0  0
    1.8422   -2.3735    0.0000 R   0  0  0  0  0  0  0  0  0  0  0  0
    2.7070   -0.8727    0.0000 O   0  0  0  0  0  0  0  0  0  0  0  0
  1  2  1  0
  2  3  1  0
  2  4  1  0
  4  5  1  1
  5  6  1  0
  6  7  2  0
  7  8  1  0
  8  9  1  0
  8 10  2  0
 10 11  1  0
 11 12  1  0
 11 13  2  0
  4 14  1  0
 14 15  1  0
 14 16  2  0
 13  6  1  0
M  ISO  2   1   1  15   2
V    1 *
V   15 *
M  END
>  <symbol>  (966) 
mePhe_35diF

>  <m_Rgroups>  (966) 
[H],[OH],None,None,None,None

>  <m_abbr>  (966) 
mePhe_35diF

>  <m_name>  (966) 
NMe-L-3,5-difluorophenylalanine

>  <m_type>  (966) 
aa

>  <m_subtype>  (966) 
modified

>  <m_chem_types>  (966) 
1:backbone_n,2:backbone_c

$$$$

     RDKit          2D

 16 16  0  0  0  0  0  0  0  0999 V2000
   -0.7570   -0.8755    0.0000 R   0  0  0  0  0  0  0  0  0  0  0  0
    0.1094   -1.3750    0.0000 N   0  0  0  0  0  0  0  0  0  0  0  0
    0.1102   -2.3750    0.0000 C   0  0  0  0  0  0  0  0  0  0  0  0
    0.9750   -0.8741    0.0000 C   0  0  0  0  0  0  0  0  0  0  0  0
    0.9742    0.1259    0.0000 C   0  0  0  0  0  0  0  0  0  0  0  0
    0.1078    0.6251    0.0000 C   0  0  0  0  0  0  0  0  0  0  0  0
    0.1070    1.6250    0.0000 C   0  0  0  0  0  0  0  0  0  0  0  0
   -0.7594    2.1243    0.0000 C   0  0  0  0  0  0  0  0  0  0  0  0
   -0.7602    3.1244    0.0000 F   0  0  0  0  0  0  0  0  0  0  0  0
   -1.6252    1.6236    0.0000 C   0  0  0  0  0  0  0  0  0  0  0  0
   -1.6244    0.6237    0.0000 C   0  0  0  0  0  0  0  0  0  0  0  0
   -2.4898    0.1231    0.0000 F   0  0  0  0  0  0  0  0  0  0  0  0
   -0.7578    0.1245    0.0000 C   0  0  0  0  0  0  0  0  0  0  0  0
    1.8414   -1.3735    0.0000 C   0  0  0  0  0  0  0  0  0  0  0  0
    1.8422   -2.3735    0.0000 R   0  0  0  0  0  0  0  0  0  0  0  0
    2.7070   -0.8727    0.0000 O   0  0  0  0  0  0  0  0  0  0  0  0
  1  2  1  0
  2  3  1  0
  2  4  1  0
  4  5  1  6
  5  6  1  0
  6  7  2  0
  7  8  1  0
  8  9  1  0
  8 10  2  0
 10 11  1  0
 11 12  1  0
 11 13  2  0
  4 14  1  0
 14 15  1  0
 14 16  2  0
 13  6  1  0
M  ISO  2   1   1  15   2
V    1 *
V   15 *
M  END
>  <symbol>  (967) 
D_mePhe_35diF

>  <m_Rgroups>  (967) 
[H],[OH],None,None,None,None

>  <m_abbr>  (967) 
D_mePhe_35diF

>  <m_name>  (967) 
NMe-D-3,5-difluorophenylalanine

>  <m_type>  (967) 
aa

>  <m_subtype>  (967) 
modified

>  <m_chem_types>  (967) 
1:backbone_n,2:backbone_c

$$$$

     RDKit          2D

 16 16  0  0  0  0  0  0  0  0999 V2000
   -0.7570   -1.0005    0.0000 R   0  0  0  0  0  0  0  0  0  0  0  0
    0.1094   -1.5000    0.0000 N   0  0  0  0  0  0  0  0  0  0  0  0
    0.1102   -2.5000    0.0000 C   0  0  0  0  0  0  0  0  0  0  0  0
    0.9750   -0.9991    0.0000 C   0  0  0  0  0  0  0  0  0  0  0  0
    0.9742    0.0009    0.0000 C   0  0  0  0  0  0  0  0  0  0  0  0
    0.1080    0.5001    0.0000 C   0  0  0  0  0  0  0  0  0  0  0  0
   -0.7578   -0.0005    0.0000 C   0  0  0  0  0  0  0  0  0  0  0  0
   -1.6242    0.4987    0.0000 C   0  0  0  0  0  0  0  0  0  0  0  0
   -1.6250    1.4986    0.0000 C   0  0  0  0  0  0  0  0  0  0  0  0
   -2.4914    1.9980    0.0000 Cl  0  0  0  0  0  0  0  0  0  0  0  0
   -0.7594    1.9993    0.0000 C   0  0  0  0  0  0  0  0  0  0  0  0
   -0.7602    2.9994    0.0000 Cl  0  0  0  0  0  0  0  0  0  0  0  0
    0.1072    1.5000    0.0000 C   0  0  0  0  0  0  0  0  0  0  0  0
    1.8414   -1.4985    0.0000 C   0  0  0  0  0  0  0  0  0  0  0  0
    1.8422   -2.4985    0.0000 R   0  0  0  0  0  0  0  0  0  0  0  0
    2.7070   -0.9977    0.0000 O   0  0  0  0  0  0  0  0  0  0  0  0
  1  2  1  0
  2  3  1  0
  2  4  1  0
  4  5  1  1
  5  6  1  0
  6  7  1  0
  7  8  2  0
  8  9  1  0
  9 10  1  0
  9 11  2  0
 11 12  1  0
 11 13  1  0
  4 14  1  0
 14 15  1  0
 14 16  2  0
 13  6  2  0
M  ISO  2   1   1  15   2
V    1 *
V   15 *
M  END
>  <symbol>  (968) 
mePhe_34diCl

>  <m_Rgroups>  (968) 
[H],[OH],None,None,None,None

>  <m_abbr>  (968) 
mePhe_34diCl

>  <m_name>  (968) 
NMe-L-3,4-dichlorophenylalanine

>  <m_type>  (968) 
aa

>  <m_subtype>  (968) 
modified

>  <m_chem_types>  (968) 
1:backbone_n,2:backbone_c

$$$$

     RDKit          2D

 16 16  0  0  0  0  0  0  0  0999 V2000
   -0.7570   -1.0005    0.0000 R   0  0  0  0  0  0  0  0  0  0  0  0
    0.1094   -1.5000    0.0000 N   0  0  0  0  0  0  0  0  0  0  0  0
    0.1102   -2.5000    0.0000 C   0  0  0  0  0  0  0  0  0  0  0  0
    0.9750   -0.9991    0.0000 C   0  0  0  0  0  0  0  0  0  0  0  0
    0.9742    0.0009    0.0000 C   0  0  0  0  0  0  0  0  0  0  0  0
    0.1080    0.5001    0.0000 C   0  0  0  0  0  0  0  0  0  0  0  0
   -0.7578   -0.0005    0.0000 C   0  0  0  0  0  0  0  0  0  0  0  0
   -1.6242    0.4987    0.0000 C   0  0  0  0  0  0  0  0  0  0  0  0
   -1.6250    1.4986    0.0000 C   0  0  0  0  0  0  0  0  0  0  0  0
   -2.4914    1.9980    0.0000 Cl  0  0  0  0  0  0  0  0  0  0  0  0
   -0.7594    1.9993    0.0000 C   0  0  0  0  0  0  0  0  0  0  0  0
   -0.7602    2.9994    0.0000 Cl  0  0  0  0  0  0  0  0  0  0  0  0
    0.1072    1.5000    0.0000 C   0  0  0  0  0  0  0  0  0  0  0  0
    1.8414   -1.4985    0.0000 C   0  0  0  0  0  0  0  0  0  0  0  0
    1.8422   -2.4985    0.0000 R   0  0  0  0  0  0  0  0  0  0  0  0
    2.7070   -0.9977    0.0000 O   0  0  0  0  0  0  0  0  0  0  0  0
  1  2  1  0
  2  3  1  0
  2  4  1  0
  4  5  1  6
  5  6  1  0
  6  7  1  0
  7  8  2  0
  8  9  1  0
  9 10  1  0
  9 11  2  0
 11 12  1  0
 11 13  1  0
  4 14  1  0
 14 15  1  0
 14 16  2  0
 13  6  2  0
M  ISO  2   1   1  15   2
V    1 *
V   15 *
M  END
>  <symbol>  (969) 
D_mePhe_34diCl

>  <m_Rgroups>  (969) 
[H],[OH],None,None,None,None

>  <m_abbr>  (969) 
D_mePhe_34diCl

>  <m_name>  (969) 
NMe-D-3,4-dichlorophenylalanine

>  <m_type>  (969) 
aa

>  <m_subtype>  (969) 
modified

>  <m_chem_types>  (969) 
1:backbone_n,2:backbone_c

$$$$

     RDKit          2D

 20 21  0  0  0  0  0  0  0  0999 V2000
   -1.1769   -2.0168    0.0000 R   0  0  0  0  0  0  0  0  0  0  0  0
   -0.2105   -2.2744    0.0000 N   0  0  0  0  0  0  0  0  0  0  0  0
    0.0495   -3.2400    0.0000 R   0  0  0  0  0  0  0  0  0  0  0  0
    0.4957   -1.5664    0.0000 C   0  0  0  0  0  0  0  0  0  0  0  0
   -0.4707   -1.3088    0.0000 C   0  0  0  0  0  0  0  0  0  0  0  0
    0.7531   -0.6002    0.0000 C   0  0  0  0  0  0  0  0  0  0  0  0
    0.0453    0.1060    0.0000 C   0  0  0  0  0  0  0  0  0  0  0  0
   -0.9423   -0.0516    0.0000 C   0  0  0  0  0  0  0  0  0  0  0  0
   -1.3973    0.8388    0.0000 N   0  0  0  0  0  0  0  0  0  0  0  0
   -2.3851    0.9940    0.0000 R   0  0  0  0  0  0  0  0  0  0  0  0
   -0.6911    1.5468    0.0000 C   0  0  0  0  0  0  0  0  0  0  0  0
   -0.7447    2.5454    0.0000 C   0  0  0  0  0  0  0  0  0  0  0  0
    0.0933    3.0910    0.0000 C   0  0  0  0  0  0  0  0  0  0  0  0
    0.0397    4.0896    0.0000 Br  0  0  0  0  0  0  0  0  0  0  0  0
    0.9849    2.6380    0.0000 C   0  0  0  0  0  0  0  0  0  0  0  0
    1.0385    1.6396    0.0000 C   0  0  0  0  0  0  0  0  0  0  0  0
    0.2005    1.0938    0.0000 C   0  0  0  0  0  0  0  0  0  0  0  0
    1.2035   -2.2726    0.0000 C   0  0  0  0  0  0  0  0  0  0  0  0
    0.9459   -3.2390    0.0000 R   0  0  0  0  0  0  0  0  0  0  0  0
    2.1693   -2.0126    0.0000 O   0  0  0  0  0  0  0  0  0  0  0  0
  1  2  1  0
  2  3  1  0
  2  4  1  0
  4  5  1  6
  4  6  1  0
  6  7  1  0
  7  8  2  0
  8  9  1  0
  9 10  1  0
  9 11  1  0
 11 12  1  0
 12 13  2  0
 13 14  1  0
 13 15  1  0
 15 16  2  0
 16 17  1  0
  4 18  1  0
 18 19  1  0
 18 20  2  0
 17  7  1  0
 17 11  2  0
M  ISO  4   1   1   3   3  10   4  19   2
V    1 *
V    3 *
V   10 *
V   19 *
M  END
>  <symbol>  (970) 
aMeTrp_5Br

>  <m_Rgroups>  (970) 
[H],[OH],[H],[H],None,None

>  <m_abbr>  (970) 
aMeTrp_5Br

>  <m_name>  (970) 
L-alpha-methyl-5-bromotryptophan

>  <m_type>  (970) 
aa

>  <m_subtype>  (970) 
modified

>  <m_chem_types>  (970) 
1:backbone_n,2:backbone_c,3:backbone_n_mod,4:aromatic_nh

$$$$

     RDKit          2D

 20 21  0  0  0  0  0  0  0  0999 V2000
   -1.1769   -2.0168    0.0000 R   0  0  0  0  0  0  0  0  0  0  0  0
   -0.2105   -2.2744    0.0000 N   0  0  0  0  0  0  0  0  0  0  0  0
    0.0495   -3.2400    0.0000 R   0  0  0  0  0  0  0  0  0  0  0  0
    0.4957   -1.5664    0.0000 C   0  0  0  0  0  0  0  0  0  0  0  0
   -0.4707   -1.3088    0.0000 C   0  0  0  0  0  0  0  0  0  0  0  0
    0.7531   -0.6002    0.0000 C   0  0  0  0  0  0  0  0  0  0  0  0
    0.0453    0.1060    0.0000 C   0  0  0  0  0  0  0  0  0  0  0  0
   -0.9423   -0.0516    0.0000 C   0  0  0  0  0  0  0  0  0  0  0  0
   -1.3973    0.8388    0.0000 N   0  0  0  0  0  0  0  0  0  0  0  0
   -2.3851    0.9940    0.0000 R   0  0  0  0  0  0  0  0  0  0  0  0
   -0.6911    1.5468    0.0000 C   0  0  0  0  0  0  0  0  0  0  0  0
   -0.7447    2.5454    0.0000 C   0  0  0  0  0  0  0  0  0  0  0  0
    0.0933    3.0910    0.0000 C   0  0  0  0  0  0  0  0  0  0  0  0
    0.0397    4.0896    0.0000 Br  0  0  0  0  0  0  0  0  0  0  0  0
    0.9849    2.6380    0.0000 C   0  0  0  0  0  0  0  0  0  0  0  0
    1.0385    1.6396    0.0000 C   0  0  0  0  0  0  0  0  0  0  0  0
    0.2005    1.0938    0.0000 C   0  0  0  0  0  0  0  0  0  0  0  0
    1.2035   -2.2726    0.0000 C   0  0  0  0  0  0  0  0  0  0  0  0
    0.9459   -3.2390    0.0000 R   0  0  0  0  0  0  0  0  0  0  0  0
    2.1693   -2.0126    0.0000 O   0  0  0  0  0  0  0  0  0  0  0  0
  1  2  1  0
  2  3  1  0
  2  4  1  0
  4  5  1  1
  4  6  1  0
  6  7  1  0
  7  8  2  0
  8  9  1  0
  9 10  1  0
  9 11  1  0
 11 12  1  0
 12 13  2  0
 13 14  1  0
 13 15  1  0
 15 16  2  0
 16 17  1  0
  4 18  1  0
 18 19  1  0
 18 20  2  0
 17  7  1  0
 17 11  2  0
M  ISO  4   1   1   3   3  10   4  19   2
V    1 *
V    3 *
V   10 *
V   19 *
M  END
>  <symbol>  (971) 
D_aMeTrp_5Br

>  <m_Rgroups>  (971) 
[H],[OH],[H],[H],None,None

>  <m_abbr>  (971) 
D_aMeTrp_5Br

>  <m_name>  (971) 
D-alpha-methyl-5-bromotryptophan

>  <m_type>  (971) 
aa

>  <m_subtype>  (971) 
modified

>  <m_chem_types>  (971) 
1:backbone_n,2:backbone_c,3:backbone_n_mod,4:aromatic_nh

$$$$

     RDKit          2D

  9  8  0  0  0  0  0  0  0  0999 V2000
   -0.9596    1.3352    0.0000 R   0  0  0  0  0  0  0  0  0  0  0  0
   -0.9616    0.3352    0.0000 N   0  0  0  0  0  0  0  0  0  0  0  0
   -1.8286   -0.1630    0.0000 R   0  0  0  0  0  0  0  0  0  0  0  0
   -0.0966   -0.1664    0.0000 C   0  0  0  0  0  0  0  0  0  0  0  0
   -0.0986   -1.1664    0.0000 C   0  0  0  0  0  0  0  0  0  0  0  0
    0.7664   -1.6682    0.0000 F   0  0  0  0  0  0  0  0  0  0  0  0
    0.7704    0.3318    0.0000 C   0  0  0  0  0  0  0  0  0  0  0  0
    1.6354   -0.1700    0.0000 R   0  0  0  0  0  0  0  0  0  0  0  0
    0.7724    1.3318    0.0000 O   0  0  0  0  0  0  0  0  0  0  0  0
  1  2  1  0
  2  3  1  0
  2  4  1  0
  4  5  1  6
  5  6  1  0
  4  7  1  0
  7  8  1  0
  7  9  2  0
M  ISO  3   1   1   3   3   8   2
V    1 *
V    3 *
V    8 *
M  END
>  <symbol>  (972) 
Ala_3F

>  <m_Rgroups>  (972) 
[H],[OH],[H],None,None,None

>  <m_abbr>  (972) 
Ala_3F

>  <m_name>  (972) 
L-beta-fluoroalanine

>  <m_type>  (972) 
aa

>  <m_subtype>  (972) 
modified

>  <m_chem_types>  (972) 
1:backbone_n,2:backbone_c,3:backbone_n_mod

$$$$

     RDKit          2D

  9  8  0  0  0  0  0  0  0  0999 V2000
   -0.9596    1.3352    0.0000 R   0  0  0  0  0  0  0  0  0  0  0  0
   -0.9616    0.3352    0.0000 N   0  0  0  0  0  0  0  0  0  0  0  0
   -1.8286   -0.1630    0.0000 R   0  0  0  0  0  0  0  0  0  0  0  0
   -0.0966   -0.1664    0.0000 C   0  0  0  0  0  0  0  0  0  0  0  0
   -0.0986   -1.1664    0.0000 C   0  0  0  0  0  0  0  0  0  0  0  0
    0.7664   -1.6682    0.0000 F   0  0  0  0  0  0  0  0  0  0  0  0
    0.7704    0.3318    0.0000 C   0  0  0  0  0  0  0  0  0  0  0  0
    1.6354   -0.1700    0.0000 R   0  0  0  0  0  0  0  0  0  0  0  0
    0.7724    1.3318    0.0000 O   0  0  0  0  0  0  0  0  0  0  0  0
  1  2  1  0
  2  3  1  0
  2  4  1  0
  4  5  1  1
  5  6  1  0
  4  7  1  0
  7  8  1  0
  7  9  2  0
M  ISO  3   1   1   3   3   8   2
V    1 *
V    3 *
V    8 *
M  END
>  <symbol>  (973) 
D_Ala_3F

>  <m_Rgroups>  (973) 
[H],[OH],[H],None,None,None

>  <m_abbr>  (973) 
D_Ala_3F

>  <m_name>  (973) 
D-beta-fluoroalanine

>  <m_type>  (973) 
aa

>  <m_subtype>  (973) 
modified

>  <m_chem_types>  (973) 
1:backbone_n,2:backbone_c,3:backbone_n_mod

$$$$

     RDKit          2D

 17 18  0  0  0  0  0  0  0  0999 V2000
    0.5074   -2.9724    0.0000 R   0  0  0  0  0  0  0  0  0  0  0  0
    0.6652   -1.9850    0.0000 N   0  0  0  0  0  0  0  0  0  0  0  0
   -0.0412   -1.2770    0.0000 C   0  0  0  0  0  0  0  0  0  0  0  0
    0.4140   -0.3868    0.0000 C   0  0  0  0  0  0  0  0  0  0  0  0
   -0.0390    0.5050    0.0000 O   0  0  0  0  0  0  0  0  0  0  0  0
   -1.0374    0.5586    0.0000 C   0  0  0  0  0  0  0  0  0  0  0  0
   -1.4904    1.4502    0.0000 C   0  0  0  0  0  0  0  0  0  0  0  0
   -2.4890    1.5036    0.0000 C   0  0  0  0  0  0  0  0  0  0  0  0
   -2.9418    2.3952    0.0000 C   0  0  0  0  0  0  0  0  0  0  0  0
   -2.3960    3.2332    0.0000 C   0  0  0  0  0  0  0  0  0  0  0  0
   -1.3976    3.1798    0.0000 C   0  0  0  0  0  0  0  0  0  0  0  0
   -0.9446    2.2880    0.0000 C   0  0  0  0  0  0  0  0  0  0  0  0
    1.4014   -0.5440    0.0000 C   0  0  0  0  0  0  0  0  0  0  0  0
    1.5566   -1.5322    0.0000 C   0  0  0  0  0  0  0  0  0  0  0  0
    2.4472   -1.9872    0.0000 C   0  0  0  0  0  0  0  0  0  0  0  0
    2.4984   -2.9858    0.0000 R   0  0  0  0  0  0  0  0  0  0  0  0
    3.2864   -1.4436    0.0000 O   0  0  0  0  0  0  0  0  0  0  0  0
  1  2  1  0
  2  3  1  0
  3  4  1  0
  4  5  1  1
  5  6  1  0
  6  7  1  0
  7  8  2  0
  8  9  1  0
  9 10  2  0
 10 11  1  0
 11 12  2  0
  4 13  1  0
 13 14  1  0
 14 15  1  1
 15 16  1  0
 15 17  2  0
 14  2  1  0
 12  7  1  0
M  ISO  2   1   1  16   2
V    1 *
V   16 *
M  END
>  <symbol>  (974) 
Pro_4OBn

>  <m_Rgroups>  (974) 
[H],[OH],None,None,None,None

>  <m_abbr>  (974) 
Pro_4OBn

>  <m_name>  (974) 
L-trans-4-benzyloxypyrrolidine-2-carboxylic acid

>  <m_type>  (974) 
aa

>  <m_subtype>  (974) 
modified

>  <m_chem_types>  (974) 
1:backbone_n,2:backbone_c

$$$$

     RDKit          2D

 17 18  0  0  0  0  0  0  0  0999 V2000
    0.5074   -2.9724    0.0000 R   0  0  0  0  0  0  0  0  0  0  0  0
    0.6652   -1.9850    0.0000 N   0  0  0  0  0  0  0  0  0  0  0  0
   -0.0412   -1.2770    0.0000 C   0  0  0  0  0  0  0  0  0  0  0  0
    0.4140   -0.3868    0.0000 C   0  0  0  0  0  0  0  0  0  0  0  0
   -0.0390    0.5050    0.0000 O   0  0  0  0  0  0  0  0  0  0  0  0
   -1.0374    0.5586    0.0000 C   0  0  0  0  0  0  0  0  0  0  0  0
   -1.4904    1.4502    0.0000 C   0  0  0  0  0  0  0  0  0  0  0  0
   -2.4890    1.5036    0.0000 C   0  0  0  0  0  0  0  0  0  0  0  0
   -2.9418    2.3952    0.0000 C   0  0  0  0  0  0  0  0  0  0  0  0
   -2.3960    3.2332    0.0000 C   0  0  0  0  0  0  0  0  0  0  0  0
   -1.3976    3.1798    0.0000 C   0  0  0  0  0  0  0  0  0  0  0  0
   -0.9446    2.2880    0.0000 C   0  0  0  0  0  0  0  0  0  0  0  0
    1.4014   -0.5440    0.0000 C   0  0  0  0  0  0  0  0  0  0  0  0
    1.5566   -1.5322    0.0000 C   0  0  0  0  0  0  0  0  0  0  0  0
    2.4472   -1.9872    0.0000 C   0  0  0  0  0  0  0  0  0  0  0  0
    2.4984   -2.9858    0.0000 R   0  0  0  0  0  0  0  0  0  0  0  0
    3.2864   -1.4436    0.0000 O   0  0  0  0  0  0  0  0  0  0  0  0
  1  2  1  0
  2  3  1  0
  3  4  1  0
  4  5  1  1
  5  6  1  0
  6  7  1  0
  7  8  2  0
  8  9  1  0
  9 10  2  0
 10 11  1  0
 11 12  2  0
  4 13  1  0
 13 14  1  0
 14 15  1  6
 15 16  1  0
 15 17  2  0
 14  2  1  0
 12  7  1  0
M  ISO  2   1   1  16   2
V    1 *
V   16 *
M  END
>  <symbol>  (975) 
D_Pro_4OBn

>  <m_Rgroups>  (975) 
[H],[OH],None,None,None,None

>  <m_abbr>  (975) 
D_Pro_4OBn

>  <m_name>  (975) 
D-trans-4-benzyloxypyrrolidine-2-carboxylic acid

>  <m_type>  (975) 
aa

>  <m_subtype>  (975) 
modified

>  <m_chem_types>  (975) 
1:backbone_n,2:backbone_c

$$$$

     RDKit          2D

 13 13  0  0  0  0  0  0  0  0999 V2000
   -0.2470   -2.0100    0.0000 R   0  0  0  0  0  0  0  0  0  0  0  0
   -0.2484   -1.0100    0.0000 N   0  0  0  0  0  0  0  0  0  0  0  0
   -1.1150   -0.5110    0.0000 R   0  0  0  0  0  0  0  0  0  0  0  0
    0.6170   -0.5090    0.0000 C   0  0  0  0  0  0  0  0  0  0  0  0
    0.6158    0.4910    0.0000 C   0  0  0  0  0  0  0  0  0  0  0  0
   -0.2508    0.9898    0.0000 C   0  0  0  0  0  0  0  0  0  0  0  0
   -0.3564    1.9846    0.0000 C   0  0  0  0  0  0  0  0  0  0  0  0
   -1.3348    2.1910    0.0000 C   0  0  0  0  0  0  0  0  0  0  0  0
   -1.8340    1.3246    0.0000 C   0  0  0  0  0  0  0  0  0  0  0  0
   -1.1638    0.5822    0.0000 S   0  0  0  0  0  0  0  0  0  0  0  0
    1.4836   -1.0080    0.0000 C   0  0  0  0  0  0  0  0  0  0  0  0
    1.4848   -2.0080    0.0000 R   0  0  0  0  0  0  0  0  0  0  0  0
    2.3490   -0.5070    0.0000 O   0  0  0  0  0  0  0  0  0  0  0  0
  1  2  1  0
  2  3  1  0
  2  4  1  0
  4  5  1  1
  5  6  1  0
  6  7  2  0
  7  8  1  0
  8  9  2  0
  9 10  1  0
  4 11  1  0
 11 12  1  0
 11 13  2  0
 10  6  1  0
M  ISO  3   1   1   3   3  12   2
V    1 *
V    3 *
V   12 *
M  END
>  <symbol>  (976) 
Thi2Ala

>  <m_Rgroups>  (976) 
[H],[OH],[H],None,None,None

>  <m_abbr>  (976) 
Thi2Ala

>  <m_name>  (976) 
L-2-thienylalanine

>  <m_type>  (976) 
aa

>  <m_subtype>  (976) 
modified

>  <m_chem_types>  (976) 
1:backbone_n,2:backbone_c,3:backbone_n_mod

$$$$

     RDKit          2D

 13 13  0  0  0  0  0  0  0  0999 V2000
   -0.2470   -2.0100    0.0000 R   0  0  0  0  0  0  0  0  0  0  0  0
   -0.2484   -1.0100    0.0000 N   0  0  0  0  0  0  0  0  0  0  0  0
   -1.1150   -0.5110    0.0000 R   0  0  0  0  0  0  0  0  0  0  0  0
    0.6170   -0.5090    0.0000 C   0  0  0  0  0  0  0  0  0  0  0  0
    0.6158    0.4910    0.0000 C   0  0  0  0  0  0  0  0  0  0  0  0
   -0.2508    0.9898    0.0000 C   0  0  0  0  0  0  0  0  0  0  0  0
   -0.3564    1.9846    0.0000 C   0  0  0  0  0  0  0  0  0  0  0  0
   -1.3348    2.1910    0.0000 C   0  0  0  0  0  0  0  0  0  0  0  0
   -1.8340    1.3246    0.0000 C   0  0  0  0  0  0  0  0  0  0  0  0
   -1.1638    0.5822    0.0000 S   0  0  0  0  0  0  0  0  0  0  0  0
    1.4836   -1.0080    0.0000 C   0  0  0  0  0  0  0  0  0  0  0  0
    1.4848   -2.0080    0.0000 R   0  0  0  0  0  0  0  0  0  0  0  0
    2.3490   -0.5070    0.0000 O   0  0  0  0  0  0  0  0  0  0  0  0
  1  2  1  0
  2  3  1  0
  2  4  1  0
  4  5  1  6
  5  6  1  0
  6  7  2  0
  7  8  1  0
  8  9  2  0
  9 10  1  0
  4 11  1  0
 11 12  1  0
 11 13  2  0
 10  6  1  0
M  ISO  3   1   1   3   3  12   2
V    1 *
V    3 *
V   12 *
M  END
>  <symbol>  (977) 
D_Thi2Ala

>  <m_Rgroups>  (977) 
[H],[OH],[H],None,None,None

>  <m_abbr>  (977) 
D_Thi2Ala

>  <m_name>  (977) 
D-2-thienylalanine

>  <m_type>  (977) 
aa

>  <m_subtype>  (977) 
modified

>  <m_chem_types>  (977) 
1:backbone_n,2:backbone_c,3:backbone_n_mod

$$$$

     RDKit          2D

 10  9  0  0  0  0  0  0  0  0999 V2000
    3.0312    0.2476    0.0000 R   0  0  0  0  0  0  0  0  0  0  0  0
    2.1648   -0.2518    0.0000 N   0  0  0  0  0  0  0  0  0  0  0  0
    2.1640   -1.2518    0.0000 R   0  0  0  0  0  0  0  0  0  0  0  0
    1.2992    0.2490    0.0000 C   0  0  0  0  0  0  0  0  0  0  0  0
    0.4328   -0.2504    0.0000 C   0  0  0  0  0  0  0  0  0  0  0  0
   -0.4328    0.2504    0.0000 C   0  0  0  0  0  0  0  0  0  0  0  0
   -1.2992   -0.2490    0.0000 C   0  0  0  0  0  0  0  0  0  0  0  0
   -2.1648    0.2518    0.0000 C   0  0  0  0  0  0  0  0  0  0  0  0
   -3.0312   -0.2476    0.0000 R   0  0  0  0  0  0  0  0  0  0  0  0
   -2.1640    1.2518    0.0000 O   0  0  0  0  0  0  0  0  0  0  0  0
  1  2  1  0
  2  3  1  0
  2  4  1  0
  4  5  1  0
  5  6  1  0
  6  7  1  0
  7  8  1  0
  8  9  1  0
  8 10  2  0
M  ISO  3   1   1   3   3   9   2
V    1 *
V    3 *
V    9 *
M  END
>  <symbol>  (978) 
Ahx

>  <m_Rgroups>  (978) 
[H],[OH],[H],None,None,None

>  <m_abbr>  (978) 
Ahx

>  <m_name>  (978) 
6-aminohexanoic acid (Ahx) linker

>  <m_type>  (978) 
linker

>  <m_subtype>  (978) 
linker

>  <m_chem_types>  (978) 
1:backbone_n,2:backbone_c,3:backbone_n_mod

$$$$

     RDKit          2D

 18 19  0  0  0  0  0  0  0  0999 V2000
   -1.5934   -2.8579    0.0000 R   0  0  0  0  0  0  0  0  0  0  0  0
   -1.5914   -1.8579    0.0000 N   0  0  0  0  0  0  0  0  0  0  0  0
   -2.4564   -1.3561    0.0000 R   0  0  0  0  0  0  0  0  0  0  0  0
   -0.7244   -1.3597    0.0000 C   0  0  0  0  0  0  0  0  0  0  0  0
   -0.7224   -0.3597    0.0000 C   0  0  0  0  0  0  0  0  0  0  0  0
    0.1448    0.1387    0.0000 C   0  0  0  0  0  0  0  0  0  0  0  0
    1.0096   -0.3631    0.0000 C   0  0  0  0  0  0  0  0  0  0  0  0
    1.8768    0.1351    0.0000 C   0  0  0  0  0  0  0  0  0  0  0  0
    1.8786    1.1351    0.0000 N   0  0  0  0  0  0  0  0  0  0  0  0
    1.0138    1.6369    0.0000 C   0  0  0  0  0  0  0  0  0  0  0  0
    1.0156    2.6367    0.0000 C   0  0  0  0  0  0  0  0  0  0  0  0
    0.1508    3.1387    0.0000 C   0  0  0  0  0  0  0  0  0  0  0  0
   -0.7164    2.6403    0.0000 C   0  0  0  0  0  0  0  0  0  0  0  0
   -0.7182    1.6403    0.0000 C   0  0  0  0  0  0  0  0  0  0  0  0
    0.1466    1.1385    0.0000 C   0  0  0  0  0  0  0  0  0  0  0  0
    0.1406   -1.8613    0.0000 C   0  0  0  0  0  0  0  0  0  0  0  0
    0.1386   -2.8613    0.0000 R   0  0  0  0  0  0  0  0  0  0  0  0
    1.0076   -1.3631    0.0000 O   0  0  0  0  0  0  0  0  0  0  0  0
  1  2  1  0
  2  3  1  0
  2  4  1  0
  4  5  1  1
  5  6  1  0
  6  7  2  0
  7  8  1  0
  8  9  2  0
  9 10  1  0
 10 11  2  0
 11 12  1  0
 12 13  2  0
 13 14  1  0
 14 15  2  0
  4 16  1  0
 16 17  1  0
 16 18  2  0
 15  6  1  0
 15 10  1  0
M  ISO  3   1   1   3   3  17   2
V    1 *
V    3 *
V   17 *
M  END
>  <symbol>  (979) 
IsoQui3Ala

>  <m_Rgroups>  (979) 
[H],[OH],[H],None,None,None

>  <m_abbr>  (979) 
IsoQui3Ala

>  <m_name>  (979) 
L-isoquinolin-3-yl-alanine

>  <m_type>  (979) 
aa

>  <m_subtype>  (979) 
modified

>  <m_chem_types>  (979) 
1:backbone_n,2:backbone_c,3:backbone_n_mod

$$$$

     RDKit          2D

 18 19  0  0  0  0  0  0  0  0999 V2000
   -1.5934   -2.8579    0.0000 R   0  0  0  0  0  0  0  0  0  0  0  0
   -1.5914   -1.8579    0.0000 N   0  0  0  0  0  0  0  0  0  0  0  0
   -2.4564   -1.3561    0.0000 R   0  0  0  0  0  0  0  0  0  0  0  0
   -0.7244   -1.3597    0.0000 C   0  0  0  0  0  0  0  0  0  0  0  0
   -0.7224   -0.3597    0.0000 C   0  0  0  0  0  0  0  0  0  0  0  0
    0.1448    0.1387    0.0000 C   0  0  0  0  0  0  0  0  0  0  0  0
    1.0096   -0.3631    0.0000 C   0  0  0  0  0  0  0  0  0  0  0  0
    1.8768    0.1351    0.0000 C   0  0  0  0  0  0  0  0  0  0  0  0
    1.8786    1.1351    0.0000 N   0  0  0  0  0  0  0  0  0  0  0  0
    1.0138    1.6369    0.0000 C   0  0  0  0  0  0  0  0  0  0  0  0
    1.0156    2.6367    0.0000 C   0  0  0  0  0  0  0  0  0  0  0  0
    0.1508    3.1387    0.0000 C   0  0  0  0  0  0  0  0  0  0  0  0
   -0.7164    2.6403    0.0000 C   0  0  0  0  0  0  0  0  0  0  0  0
   -0.7182    1.6403    0.0000 C   0  0  0  0  0  0  0  0  0  0  0  0
    0.1466    1.1385    0.0000 C   0  0  0  0  0  0  0  0  0  0  0  0
    0.1406   -1.8613    0.0000 C   0  0  0  0  0  0  0  0  0  0  0  0
    0.1386   -2.8613    0.0000 R   0  0  0  0  0  0  0  0  0  0  0  0
    1.0076   -1.3631    0.0000 O   0  0  0  0  0  0  0  0  0  0  0  0
  1  2  1  0
  2  3  1  0
  2  4  1  0
  4  5  1  6
  5  6  1  0
  6  7  2  0
  7  8  1  0
  8  9  2  0
  9 10  1  0
 10 11  2  0
 11 12  1  0
 12 13  2  0
 13 14  1  0
 14 15  2  0
  4 16  1  0
 16 17  1  0
 16 18  2  0
 15  6  1  0
 15 10  1  0
M  ISO  3   1   1   3   3  17   2
V    1 *
V    3 *
V   17 *
M  END
>  <symbol>  (980) 
D_IsoQui3Ala

>  <m_Rgroups>  (980) 
[H],[OH],[H],None,None,None

>  <m_abbr>  (980) 
D_IsoQui3Ala

>  <m_name>  (980) 
D-isoquinolin-3-yl-alanine

>  <m_type>  (980) 
aa

>  <m_subtype>  (980) 
modified

>  <m_chem_types>  (980) 
1:backbone_n,2:backbone_c,3:backbone_n_mod

$$$$

     RDKit          2D

 18 19  0  0  0  0  0  0  0  0999 V2000
    0.5793   -2.4441    0.0000 R   0  0  0  0  0  0  0  0  0  0  0  0
    0.5785   -1.4441    0.0000 N   0  0  0  0  0  0  0  0  0  0  0  0
   -0.2879   -0.9447    0.0000 R   0  0  0  0  0  0  0  0  0  0  0  0
    1.4441   -0.9433    0.0000 C   0  0  0  0  0  0  0  0  0  0  0  0
    1.4433    0.0567    0.0000 C   0  0  0  0  0  0  0  0  0  0  0  0
    0.5771    0.5559    0.0000 C   0  0  0  0  0  0  0  0  0  0  0  0
    0.5763    1.5561    0.0000 C   0  0  0  0  0  0  0  0  0  0  0  0
   -0.2903    2.0553    0.0000 C   0  0  0  0  0  0  0  0  0  0  0  0
   -1.1559    1.5547    0.0000 C   0  0  0  0  0  0  0  0  0  0  0  0
   -2.0223    2.0539    0.0000 N   0  0  0  0  0  0  0  0  0  0  0  0
   -2.8879    1.5533    0.0000 C   0  0  0  0  0  0  0  0  0  0  0  0
   -2.8871    0.5531    0.0000 C   0  0  0  0  0  0  0  0  0  0  0  0
   -2.0207    0.0539    0.0000 C   0  0  0  0  0  0  0  0  0  0  0  0
   -1.1551    0.5545    0.0000 C   0  0  0  0  0  0  0  0  0  0  0  0
   -0.2887    0.0553    0.0000 C   0  0  0  0  0  0  0  0  0  0  0  0
    2.3105   -1.4427    0.0000 C   0  0  0  0  0  0  0  0  0  0  0  0
    2.3113   -2.4427    0.0000 R   0  0  0  0  0  0  0  0  0  0  0  0
    3.1761   -0.9419    0.0000 O   0  0  0  0  0  0  0  0  0  0  0  0
  1  2  1  0
  2  3  1  0
  2  4  1  0
  4  5  1  1
  5  6  1  0
  6  7  1  0
  7  8  2  0
  8  9  1  0
  9 10  2  0
 10 11  1  0
 11 12  2  0
 12 13  1  0
 13 14  2  0
 14 15  1  0
  4 16  1  0
 16 17  1  0
 16 18  2  0
 15  6  2  0
 14  9  1  0
M  ISO  3   1   1   3   3  17   2
V    1 *
V    3 *
V   17 *
M  END
>  <symbol>  (981) 
Qui6Ala

>  <m_Rgroups>  (981) 
[H],[OH],[H],None,None,None

>  <m_abbr>  (981) 
Qui6Ala

>  <m_name>  (981) 
L-quinolin-6-yl-alanine

>  <m_type>  (981) 
aa

>  <m_subtype>  (981) 
modified

>  <m_chem_types>  (981) 
1:backbone_n,2:backbone_c,3:backbone_n_mod

$$$$

     RDKit          2D

 12 12  0  0  0  0  0  0  0  0999 V2000
    3.7500   -1.2990    0.0000 R   0  0  0  0  0  0  0  0  0  0  0  0
    3.0000    0.0000    0.0000 C   0  0  0  0  0  0  0  0  0  0  0  0
    1.5000   -0.0000    0.0000 C   0  0  0  0  0  0  0  0  0  0  0  0
    0.7500   -1.2990    0.0000 C   0  0  0  0  0  0  0  0  0  0  0  0
   -0.7500   -1.2990    0.0000 C   0  0  0  0  0  0  0  0  0  0  0  0
   -1.5000   -2.5981    0.0000 C   0  0  0  0  0  0  0  0  0  0  0  0
   -3.0000   -2.5981    0.0000 R   0  0  0  0  0  0  0  0  0  0  0  0
   -1.5000    0.0000    0.0000 C   0  0  0  0  0  0  0  0  0  0  0  0
   -0.7500    1.2990    0.0000 C   0  0  0  0  0  0  0  0  0  0  0  0
   -1.5000    2.5981    0.0000 C   0  0  0  0  0  0  0  0  0  0  0  0
   -0.7500    3.8971    0.0000 R   0  0  0  0  0  0  0  0  0  0  0  0
    0.7500    1.2990    0.0000 C   0  0  0  0  0  0  0  0  0  0  0  0
  1  2  1  0
  2  3  1  0
  3  4  2  0
  4  5  1  0
  5  6  1  0
  6  7  1  0
  5  8  2  0
  8  9  1  0
  9 10  1  0
 10 11  1  0
  9 12  2  0
 12  3  1  0
M  ISO  3   1   4   7   5  11   6
V    1 *
V    7 *
V   11 *
M  END
>  <symbol>  (982) 
TBMB

>  <m_Rgroups>  (982) 
None, None, None, [Br], [Br], [Br]

>  <m_abbr>  (982) 
TBMB

>  <m_name>  (982) 
1,3,5-Tris(bromomethyl)benzene

>  <m_type>  (982) 
linker

>  <m_subtype>  (982) 
crosslink

>  <m_chem_types>  (982) 
4:alkyl_halide_c,5:alkyl_halide_c,6:alkyl_halide_c

$$$$

     RDKit          2D

 10  9  0  0  0  0  0  0  0  0999 V2000
   -1.2990   -2.2500    0.0000 R   0  0  0  0  0  0  0  0  0  0  0  0
    0.0000   -1.5000    0.0000 N   0  0  0  0  0  0  0  0  0  0  0  0
    1.2990   -2.2500    0.0000 R   0  0  0  0  0  0  0  0  0  0  0  0
    0.0000    0.0000    0.0000 C   0  0  0  0  0  0  0  0  0  0  0  0
    1.2990    0.7500    0.0000 C   0  0  0  0  0  0  0  0  0  0  0  0
    1.2990    2.2500    0.0000 R   0  0  0  0  0  0  0  0  0  0  0  0
    2.5981    0.0000    0.0000 O   0  0  0  0  0  0  0  0  0  0  0  0
   -1.2990    0.7500    0.0000 C   0  0  0  0  0  0  0  0  0  0  0  0
   -1.2990    2.2500    0.0000 R   0  0  0  0  0  0  0  0  0  0  0  0
   -2.5981    0.0000    0.0000 Cl  0  0  0  0  0  0  0  0  0  0  0  0
  1  2  1  0
  2  3  1  0
  2  4  1  0
  4  5  1  0
  5  6  1  0
  5  7  2  0
  4  8  1  1
  8  9  1  0
  8 10  1  0
M  ISO  4   1   1   3   3   6   2   9   4
V    1 *
V    3 *
V    6 *
V    9 *
M  END
>  <symbol>  (983) 
ClAcAla

>  <m_abbr>  (983) 
ClAcAla

>  <m_name>  (983) 
Chloroalanine

>  <m_type>  (983) 
aa

>  <m_subtype>  (983) 
modified

>  <m_Rgroups>  (983) 
[H],[OH],[H],[H]

>  <m_chem_types>  (983) 
1:backbone_n,2:backbone_c,3:backbone_n_mod,4:alkyl_halide_c

$$$$

     RDKit          2D

 19 19  0  0  0  0  0  0  0  0999 V2000
    2.3959    2.6978    0.0000 R   0  0  0  0  0  0  0  0  0  0  0  0
    1.6257    1.4106    0.0000 N   0  0  0  0  0  0  0  0  0  0  0  0
    0.1259    1.4340    0.0000 R   0  0  0  0  0  0  0  0  0  0  0  0
    2.3553    0.1000    0.0000 C   0  0  0  0  0  0  0  0  0  0  0  0
    3.8551    0.0766    0.0000 C   0  0  0  0  0  0  0  0  0  0  0  0
    4.6253    1.3638    0.0000 R   0  0  0  0  0  0  0  0  0  0  0  0
    4.5848   -1.2340    0.0000 O   0  0  0  0  0  0  0  0  0  0  0  0
    1.5852   -1.1872    0.0000 C   0  0  0  0  0  0  0  0  0  0  0  0
    2.3148   -2.4978    0.0000 R   0  0  0  0  0  0  0  0  0  0  0  0
    0.0853   -1.1638    0.0000 C   0  0  0  0  0  0  0  0  0  0  0  0
   -0.6848   -2.4509    0.0000 O   0  0  0  0  0  0  0  0  0  0  0  0
   -0.6443    0.1468    0.0000 O   0  0  0  0  0  0  0  0  0  0  0  0
   -2.1441    0.1702    0.0000 N   0  0  0  0  0  0  0  0  0  0  0  0
   -3.0068    1.3974    0.0000 C   0  0  0  0  0  0  0  0  0  0  0  0
   -2.5210    2.8165    0.0000 O   0  0  0  0  0  0  0  0  0  0  0  0
   -4.4404    0.9561    0.0000 C   0  0  0  0  0  0  0  0  0  0  0  0
   -4.4638   -0.5437    0.0000 C   0  0  0  0  0  0  0  0  0  0  0  0
   -3.0446   -1.0294    0.0000 C   0  0  0  0  0  0  0  0  0  0  0  0
   -2.6034   -2.4630    0.0000 O   0  0  0  0  0  0  0  0  0  0  0  0
  1  2  1  0
  2  3  1  0
  2  4  1  0
  4  5  1  0
  5  6  1  0
  5  7  2  0
  4  8  1  6
  8  9  1  0
  8 10  1  0
 10 11  2  0
 10 12  1  0
 12 13  1  0
 13 14  1  0
 14 15  2  0
 14 16  1  0
 16 17  1  0
 17 18  1  0
 18 19  2  0
 18 13  1  0
M  ISO  4   1   1   3   3   6   2   9   4
V    1 *
V    3 *
V    6 *
V    9 *
M  END
>  <symbol>  (984) 
NHSAla

>  <m_abbr>  (984) 
NHSAla

>  <m_name>  (984) 
NHS-ester alanine

>  <m_type>  (984) 
aa

>  <m_subtype>  (984) 
modified

>  <m_Rgroups>  (984) 
[H],[OH],[H],[H]

>  <m_chem_types>  (984) 
1:backbone_n,2:backbone_c,3:backbone_n_mod,4:nhs_ester

$$$$

     RDKit          2D

 13 12  0  0  0  0  0  0  0  0999 V2000
   -3.6603   -0.5247    0.0000 R   0  0  0  0  0  0  0  0  0  0  0  0
   -2.2769   -1.1044    0.0000 N   0  0  0  0  0  0  0  0  0  0  0  0
   -2.0872   -2.5924    0.0000 R   0  0  0  0  0  0  0  0  0  0  0  0
   -1.0831   -0.1962    0.0000 C   0  0  0  0  0  0  0  0  0  0  0  0
    0.3004   -0.7759    0.0000 C   0  0  0  0  0  0  0  0  0  0  0  0
    1.4942    0.1323    0.0000 C   0  0  0  0  0  0  0  0  0  0  0  0
    1.3045    1.6202    0.0000 O   0  0  0  0  0  0  0  0  0  0  0  0
    2.8776   -0.4475    0.0000 N   0  0  0  0  0  0  0  0  0  0  0  0
    4.0714    0.4608    0.0000 R   0  0  0  0  0  0  0  0  0  0  0  0
    3.0672   -1.9354    0.0000 N   0  0  0  0  0  0  0  0  0  0  0  0
   -1.2727    1.2918    0.0000 C   0  0  0  0  0  0  0  0  0  0  0  0
   -0.0789    2.2000    0.0000 R   0  0  0  0  0  0  0  0  0  0  0  0
   -2.6562    1.8715    0.0000 O   0  0  0  0  0  0  0  0  0  0  0  0
  1  2  1  0
  2  3  1  0
  2  4  1  0
  4  5  1  6
  5  6  1  0
  6  7  2  0
  6  8  1  0
  8  9  1  0
  8 10  1  0
  4 11  1  0
 11 12  1  0
 11 13  2  0
M  ISO  4   1   1   3   3   9   4  12   2
V    1 *
V    3 *
V    9 *
V   12 *
M  END
>  <symbol>  (985) 
HzAla

>  <m_abbr>  (985) 
HzAla

>  <m_name>  (985) 
Hydrazide-alanine

>  <m_type>  (985) 
aa

>  <m_subtype>  (985) 
modified

>  <m_Rgroups>  (985) 
[H],[OH],[H],[H]

>  <m_chem_types>  (985) 
1:backbone_n,2:backbone_c,3:backbone_n_mod,4:hydrazide

$$$$
Hser
     RDKit          2D

 11 10  0  0  0  0  0  0  0  0999 V2000
   -3.3018   -0.2248    0.0000 R   0  0  0  0  0  1  0  0  0  0  0  0
   -1.9832   -0.9398    0.0000 N   0  0  0  0  0  0  0  0  0  0  0  0
   -1.9430   -2.4392    0.0000 R   0  0  0  0  0  1  0  0  0  0  0  0
   -0.7047   -0.1553    0.0000 C   0  0  0  0  0  0  0  0  0  0  0  0
    0.6140   -0.8702    0.0000 C   0  0  0  0  0  0  0  0  0  0  0  0
    1.8925   -0.0858    0.0000 C   0  0  0  0  0  0  0  0  0  0  0  0
    3.2111   -0.8007    0.0000 O   0  0  0  0  0  0  0  0  0  0  0  0
    4.4896   -0.0162    0.0000 R   0  0  0  0  0  1  0  0  0  0  0  0
   -0.7448    1.3442    0.0000 C   0  0  0  0  0  0  0  0  0  0  0  0
    0.5337    2.1287    0.0000 R   0  0  0  0  0  1  0  0  0  0  0  0
   -2.0634    2.0592    0.0000 O   0  0  0  0  0  0  0  0  0  0  0  0
  1  2  1  0
  2  3  1  0
  2  4  1  0
  4  5  1  6
  5  6  1  0
  6  7  1  0
  7  8  1  0
  4  9  1  0
  9 10  1  0
  9 11  2  0
M  ISO  4   1   1   3   3   8   4  10   2
M  END


>  <symbol>  (986) 
Hser

>  <m_abbr>  (986) 
Hser

>  <m_name>  (986) 
Homoserine

>  <m_type>  (986) 
aa

>  <m_subtype>  (986) 
modified

>  <m_Rgroups>  (986) 
[H],[OH],[H],[H]

>  <m_chem_types>  (986) 
1:backbone_n,2:backbone_c,3:backbone_n_mod,4:hydroxyl

$$$$

     RDKit          2D

 11 10  0  0  0  0  0  0  0  0999 V2000
   -3.3018   -0.2248    0.0000 R   0  0  0  0  0  0  0  0  0  0  0  0
   -1.9832   -0.9398    0.0000 N   0  0  0  0  0  0  0  0  0  0  0  0
   -1.9430   -2.4392    0.0000 R   0  0  0  0  0  0  0  0  0  0  0  0
   -0.7047   -0.1553    0.0000 C   0  0  0  0  0  0  0  0  0  0  0  0
    0.6140   -0.8702    0.0000 C   0  0  0  0  0  0  0  0  0  0  0  0
    1.8925   -0.0858    0.0000 C   0  0  0  0  0  0  0  0  0  0  0  0
    3.2111   -0.8007    0.0000 Se  0  0  0  0  0  2  0  0  0  0  0  0
    4.4896   -0.0162    0.0000 R   0  0  0  0  0  0  0  0  0  0  0  0
   -0.7448    1.3442    0.0000 C   0  0  0  0  0  0  0  0  0  0  0  0
    0.5337    2.1287    0.0000 R   0  0  0  0  0  0  0  0  0  0  0  0
   -2.0634    2.0592    0.0000 O   0  0  0  0  0  0  0  0  0  0  0  0
  1  2  1  0
  2  3  1  0
  2  4  1  0
  4  5  1  6
  5  6  1  0
  6  7  1  0
  7  8  1  0
  4  9  1  0
  9 10  1  0
  9 11  2  0
M  ISO  4   1   1   3   3   8   4  10   2
V    1 *
V    3 *
V    8 *
V   10 *
M  END
>  <symbol>  (987) 
Se_Hcy

>  <m_abbr>  (987) 
Se_Hcy

>  <m_name>  (987) 
Se_Hcy

>  <m_type>  (987) 
aa

>  <m_subtype>  (987) 
modified

>  <m_Rgroups>  (987) 
[H],[OH],[H],[H]

>  <m_chem_types>  (987) 
1:backbone_n,2:backbone_c,3:backbone_n_mod,4:selenol

$$$$

     RDKit          2D

 11 10  0  0  0  0  0  0  0  0999 V2000
   -3.3018   -0.2248    0.0000 R   0  0  0  0  0  0  0  0  0  0  0  0
   -1.9832   -0.9398    0.0000 N   0  0  0  0  0  0  0  0  0  0  0  0
   -1.9430   -2.4392    0.0000 R   0  0  0  0  0  0  0  0  0  0  0  0
   -0.7047   -0.1553    0.0000 C   0  0  0  0  0  0  0  0  0  0  0  0
    0.6140   -0.8702    0.0000 C   0  0  0  0  0  0  0  0  0  0  0  0
    1.8925   -0.0858    0.0000 C   0  0  0  0  0  0  0  0  0  0  0  0
    3.2111   -0.8007    0.0000 Se  0  0  0  0  0  2  0  0  0  0  0  0
    4.4896   -0.0162    0.0000 R   0  0  0  0  0  0  0  0  0  0  0  0
   -0.7448    1.3442    0.0000 C   0  0  0  0  0  0  0  0  0  0  0  0
    0.5337    2.1287    0.0000 R   0  0  0  0  0  0  0  0  0  0  0  0
   -2.0634    2.0592    0.0000 O   0  0  0  0  0  0  0  0  0  0  0  0
  1  2  1  0
  2  3  1  0
  2  4  1  0
  4  5  1  1
  5  6  1  0
  6  7  1  0
  7  8  1  0
  4  9  1  0
  9 10  1  0
  9 11  2  0
M  ISO  4   1   1   3   3   8   4  10   2
V    1 *
V    3 *
V    8 *
V   10 *
M  END
>  <symbol>  (988) 
D_Se_Hcy

>  <m_abbr>  (988) 
D_Se_Hcy

>  <m_name>  (988) 
D_Se_Hcy

>  <m_type>  (988) 
aa

>  <m_subtype>  (988) 
modified

>  <m_Rgroups>  (988) 
[H],[OH],[H],[H]

>  <m_chem_types>  (988) 
1:backbone_n,2:backbone_c,3:backbone_n_mod,4:selenol

$$$$

     RDKit          2D

 11 10  0  0  0  0  0  0  0  0999 V2000
   -2.0892    1.3257    0.0000 R   0  0  0  0  0  0  0  0  0  0  0  0
   -1.7537   -0.1363    0.0000 N   0  0  0  0  0  0  0  0  0  0  0  0
   -2.8521   -1.1579    0.0000 R   0  0  0  0  0  0  0  0  0  0  0  0
   -0.3198   -0.5768    0.0000 C   0  0  0  0  0  0  0  0  0  0  0  0
   -0.7603   -2.0107    0.0000 C   0  0  0  0  0  0  0  0  0  0  0  0
    1.1140   -1.0172    0.0000 C   0  0  0  0  0  0  0  0  0  0  0  0
    2.2124    0.0043    0.0000 Se  0  0  0  0  0  2  0  0  0  0  0  0
    3.6463   -0.4362    0.0000 R   0  0  0  0  0  0  0  0  0  0  0  0
    0.1206    0.8571    0.0000 C   0  0  0  0  0  0  0  0  0  0  0  0
    1.5826    1.1926    0.0000 R   0  0  0  0  0  0  0  0  0  0  0  0
   -0.9009    1.9555    0.0000 O   0  0  0  0  0  0  0  0  0  0  0  0
  1  2  1  0
  2  3  1  0
  2  4  1  0
  4  5  1  0
  4  6  1  0
  6  7  1  0
  7  8  1  0
  4  9  1  0
  9 10  1  0
  9 11  2  0
M  ISO  4   1   1   3   3   8   4  10   2
V    1 *
V    3 *
V    8 *
V   10 *
M  END
>  <symbol>  (989) 
Se_Pen

>  <m_abbr>  (989) 
Se_Pen

>  <m_name>  (989) 
Se_Pen

>  <m_type>  (989) 
aa

>  <m_subtype>  (989) 
modified

>  <m_Rgroups>  (989) 
[H],[OH],[H],[H]

>  <m_chem_types>  (989) 
1:backbone_n,2:backbone_c,3:backbone_n_mod,4:selenol

$$$$

     RDKit          2D

 18 18  0  0  0  0  0  0  0  0999 V2000
   -4.0358    2.1816    0.0000 R   0  0  0  0  0  0  0  0  0  0  0  0
   -2.8135    1.3120    0.0000 N   0  0  0  0  0  0  0  0  0  0  0  0
   -1.4493    1.9357    0.0000 R   0  0  0  0  0  0  0  0  0  0  0  0
   -2.9555   -0.1813    0.0000 C   0  0  0  0  0  0  0  0  0  0  0  0
   -1.7332   -1.0508    0.0000 C   0  0  0  0  0  0  0  0  0  0  0  0
   -0.3690   -0.4271    0.0000 C   0  0  0  0  0  0  0  0  0  0  0  0
    0.8532   -1.2967    0.0000 C   0  0  0  0  0  0  0  0  0  0  0  0
    2.2174   -0.6730    0.0000 N   0  0  0  0  0  0  0  0  0  0  0  0
    3.5238   -1.4100    0.0000 C   0  0  0  0  0  0  0  0  0  0  0  0
    3.6954   -2.9001    0.0000 O   0  0  0  0  0  0  0  0  0  0  0  0
    4.6285   -0.3953    0.0000 C   0  0  0  0  0  0  0  0  0  0  0  0
    4.0048    0.9689    0.0000 C   0  0  0  0  0  0  0  0  0  0  0  0
    4.7418    2.2754    0.0000 R   0  0  0  0  0  0  0  0  0  0  0  0
    2.5146    0.7973    0.0000 C   0  0  0  0  0  0  0  0  0  0  0  0
    1.4999    1.9020    0.0000 O   0  0  0  0  0  0  0  0  0  0  0  0
   -4.3196   -0.8050    0.0000 C   0  0  0  0  0  0  0  0  0  0  0  0
   -5.5419    0.0646    0.0000 R   0  0  0  0  0  0  0  0  0  0  0  0
   -4.4616   -2.2982    0.0000 O   0  0  0  0  0  0  0  0  0  0  0  0
  1  2  1  0
  2  3  1  0
  2  4  1  0
  4  5  1  1
  5  6  1  0
  6  7  1  0
  7  8  1  0
  8  9  1  0
  9 10  2  0
  9 11  1  0
 11 12  2  0
 12 13  1  0
 12 14  1  0
 14 15  2  0
  4 16  1  0
 16 17  1  0
 16 18  2  0
 14  8  1  0
M  ISO  4   1   1   3   3  13   4  17   2
V    1 *
V    3 *
V   13 *
V   17 *
M  END
>  <symbol>  (990) 
MalOrn

>  <m_abbr>  (990) 
MalOrn

>  <m_name>  (990) 
MalOrn

>  <m_type>  (990) 
aa

>  <m_subtype>  (990) 
modified

>  <m_Rgroups>  (990) 
[H],[OH],[H],[H]

>  <m_chem_types>  (990) 
1:backbone_n,2:backbone_c,3:backbone_n_mod,4:maleimide_c

$$$$

     RDKit          2D

 17 17  0  0  0  0  0  0  0  0999 V2000
   -4.2923   -1.5660    0.0000 R   0  0  0  0  0  0  0  0  0  0  0  0
   -2.8206   -1.2763    0.0000 N   0  0  0  0  0  0  0  0  0  0  0  0
   -1.8337   -2.4059    0.0000 R   0  0  0  0  0  0  0  0  0  0  0  0
   -2.3357    0.1432    0.0000 C   0  0  0  0  0  0  0  0  0  0  0  0
   -0.8639    0.4330    0.0000 C   0  0  0  0  0  0  0  0  0  0  0  0
    0.1229   -0.6967    0.0000 C   0  0  0  0  0  0  0  0  0  0  0  0
    1.5947   -0.4069    0.0000 N   0  0  0  0  0  0  0  0  0  0  0  0
    2.6942   -1.4272    0.0000 C   0  0  0  0  0  0  0  0  0  0  0  0
    2.5150   -2.9165    0.0000 O   0  0  0  0  0  0  0  0  0  0  0  0
    4.0043   -0.6968    0.0000 C   0  0  0  0  0  0  0  0  0  0  0  0
    3.7145    0.7749    0.0000 C   0  0  0  0  0  0  0  0  0  0  0  0
    4.7349    1.8744    0.0000 R   0  0  0  0  0  0  0  0  0  0  0  0
    2.2253    0.9541    0.0000 C   0  0  0  0  0  0  0  0  0  0  0  0
    1.4949    2.2643    0.0000 O   0  0  0  0  0  0  0  0  0  0  0  0
   -3.3225    1.2729    0.0000 C   0  0  0  0  0  0  0  0  0  0  0  0
   -4.7942    0.9831    0.0000 R   0  0  0  0  0  0  0  0  0  0  0  0
   -2.8376    2.6923    0.0000 O   0  0  0  0  0  0  0  0  0  0  0  0
  1  2  1  0
  2  3  1  0
  2  4  1  0
  4  5  1  6
  5  6  1  0
  6  7  1  0
  7  8  1  0
  8  9  2  0
  8 10  1  0
 10 11  2  0
 11 12  1  0
 11 13  1  0
 13 14  2  0
  4 15  1  0
 15 16  1  0
 15 17  2  0
 13  7  1  0
M  ISO  4   1   1   3   3  12   4  16   2
V    1 *
V    3 *
V   12 *
V   16 *
M  END
>  <symbol>  (991) 
MalDab

>  <m_abbr>  (991) 
MalDab

>  <m_name>  (991) 
MalDab

>  <m_type>  (991) 
aa

>  <m_subtype>  (991) 
modified

>  <m_Rgroups>  (991) 
[H],[OH],[H],[H]

>  <m_chem_types>  (991) 
1:backbone_n,2:backbone_c,3:backbone_n_mod,4:maleimide_c

$$$$

     RDKit          2D

 18 18  0  0  0  0  0  0  0  0999 V2000
    5.0081   -1.7106    0.0000 R   0  0  0  0  0  0  0  0  0  0  0  0
    3.5953   -1.2065    0.0000 N   0  0  0  0  0  0  0  0  0  0  0  0
    2.4523   -2.1778    0.0000 R   0  0  0  0  0  0  0  0  0  0  0  0
    3.3256    0.2691    0.0000 C   0  0  0  0  0  0  0  0  0  0  0  0
    1.9129    0.7733    0.0000 C   0  0  0  0  0  0  0  0  0  0  0  0
    0.7699   -0.1981    0.0000 C   0  0  0  0  0  0  0  0  0  0  0  0
   -0.6429    0.3061    0.0000 C   0  0  0  0  0  0  0  0  0  0  0  0
   -1.7859   -0.6653    0.0000 C   0  0  0  0  0  0  0  0  0  0  0  0
   -1.5161   -2.1409    0.0000 R   0  0  0  0  0  0  0  0  0  0  0  0
   -3.1986   -0.1612    0.0000 C   0  0  0  0  0  0  0  0  0  0  0  0
   -4.3416   -1.1325    0.0000 N   0  0  0  0  0  0  0  0  0  0  0  0
   -5.7543   -0.6284    0.0000 N   0  0  0  0  0  0  0  0  0  0  0  0
   -6.0241    0.8472    0.0000 C   0  0  0  0  0  0  0  0  0  0  0  0
   -4.8811    1.8186    0.0000 N   0  0  0  0  0  0  0  0  0  0  0  0
   -3.4683    1.3144    0.0000 N   0  0  0  0  0  0  0  0  0  0  0  0
    4.4686    1.2405    0.0000 C   0  0  0  0  0  0  0  0  0  0  0  0
    5.8813    0.7363    0.0000 R   0  0  0  0  0  0  0  0  0  0  0  0
    4.1988    2.7160    0.0000 O   0  0  0  0  0  0  0  0  0  0  0  0
  1  2  1  0
  2  3  1  0
  2  4  1  0
  4  5  1  1
  5  6  1  0
  6  7  1  0
  7  8  1  0
  8  9  1  0
  8 10  1  0
 10 11  2  0
 11 12  1  0
 12 13  2  0
 13 14  1  0
 14 15  2  0
  4 16  1  0
 16 17  1  0
 16 18  2  0
 15 10  1  0
M  ISO  4   1   1   3   3   9   4  17   2
V    1 *
V    3 *
V    9 *
V   17 *
M  END
>  <symbol>  (992) 
TzOrn

>  <m_abbr>  (992) 
TzOrn

>  <m_name>  (992) 
TzOrn

>  <m_type>  (992) 
aa

>  <m_subtype>  (992) 
modified

>  <m_Rgroups>  (992) 
[H],[OH],[H],[H]

>  <m_chem_types>  (992) 
1:backbone_n,2:backbone_c,3:backbone_n_mod,4:tetrazine_c

$$$$

     RDKit          2D

 17 17  0  0  0  0  0  0  0  0999 V2000
    3.8310    2.2871    0.0000 R   0  0  0  0  0  0  0  0  0  0  0  0
    2.5843    1.4530    0.0000 N   0  0  0  0  0  0  0  0  0  0  0  0
    1.2386    2.1157    0.0000 R   0  0  0  0  0  0  0  0  0  0  0  0
    2.6832   -0.0437    0.0000 C   0  0  0  0  0  0  0  0  0  0  0  0
    1.4365   -0.8778    0.0000 C   0  0  0  0  0  0  0  0  0  0  0  0
    0.0908   -0.2151    0.0000 C   0  0  0  0  0  0  0  0  0  0  0  0
   -1.1559   -1.0491    0.0000 C   0  0  0  0  0  0  0  0  0  0  0  0
   -1.0570   -2.5459    0.0000 R   0  0  0  0  0  0  0  0  0  0  0  0
   -2.5016   -0.3864    0.0000 C   0  0  0  0  0  0  0  0  0  0  0  0
   -3.7484   -1.2205    0.0000 N   0  0  0  0  0  0  0  0  0  0  0  0
   -5.0940   -0.5578    0.0000 N   0  0  0  0  0  0  0  0  0  0  0  0
   -5.1930    0.9389    0.0000 C   0  0  0  0  0  0  0  0  0  0  0  0
   -3.9462    1.7730    0.0000 N   0  0  0  0  0  0  0  0  0  0  0  0
   -2.6006    1.1103    0.0000 N   0  0  0  0  0  0  0  0  0  0  0  0
    4.0289   -0.7064    0.0000 C   0  0  0  0  0  0  0  0  0  0  0  0
    5.2756    0.1277    0.0000 R   0  0  0  0  0  0  0  0  0  0  0  0
    4.1278   -2.2031    0.0000 O   0  0  0  0  0  0  0  0  0  0  0  0
  1  2  1  0
  2  3  1  0
  2  4  1  0
  4  5  1  6
  5  6  1  0
  6  7  1  0
  7  8  1  0
  7  9  1  0
  9 10  2  0
 10 11  1  0
 11 12  2  0
 12 13  1  0
 13 14  2  0
  4 15  1  0
 15 16  1  0
 15 17  2  0
 14  9  1  0
M  ISO  4   1   1   3   3   8   4  16   2
V    1 *
V    3 *
V    8 *
V   16 *
M  END
>  <symbol>  (993) 
TzDab

>  <m_abbr>  (993) 
TzDab

>  <m_name>  (993) 
TzDab

>  <m_type>  (993) 
aa

>  <m_subtype>  (993) 
modified

>  <m_Rgroups>  (993) 
[H],[OH],[H],[H]

>  <m_chem_types>  (993) 
1:backbone_n,2:backbone_c,3:backbone_n_mod,4:tetrazine_c

$$$$

     RDKit          2D

 19 19  0  0  0  0  0  0  0  0999 V2000
    4.3149    2.3551    0.0000 R   0  0  0  0  0  0  0  0  0  0  0  0
    3.1042    1.4696    0.0000 N   0  0  0  0  0  0  0  0  0  0  0  0
    1.7319    2.0754    0.0000 R   0  0  0  0  0  0  0  0  0  0  0  0
    3.2657   -0.0217    0.0000 C   0  0  0  0  0  0  0  0  0  0  0  0
    2.0549   -0.9072    0.0000 C   0  0  0  0  0  0  0  0  0  0  0  0
    0.6827   -0.3014    0.0000 C   0  0  0  0  0  0  0  0  0  0  0  0
   -0.5281   -1.1869    0.0000 C   0  0  0  0  0  0  0  0  0  0  0  0
   -0.3666   -2.6782    0.0000 R   0  0  0  0  0  0  0  0  0  0  0  0
   -1.9003   -0.5811    0.0000 C   0  0  0  0  0  0  0  0  0  0  0  0
   -2.9851   -1.6170    0.0000 C   0  0  0  0  0  0  0  0  0  0  0  0
   -4.4847   -1.5825    0.0000 C   0  0  0  0  0  0  0  0  0  0  0  0
   -5.5206   -0.4977    0.0000 C   0  0  0  0  0  0  0  0  0  0  0  0
   -5.4861    1.0019    0.0000 C   0  0  0  0  0  0  0  0  0  0  0  0
   -4.4013    2.0379    0.0000 C   0  0  0  0  0  0  0  0  0  0  0  0
   -2.9017    2.0033    0.0000 C   0  0  0  0  0  0  0  0  0  0  0  0
   -1.8657    0.9185    0.0000 C   0  0  0  0  0  0  0  0  0  0  0  0
    4.6379   -0.6275    0.0000 C   0  0  0  0  0  0  0  0  0  0  0  0
    5.8486    0.2580    0.0000 R   0  0  0  0  0  0  0  0  0  0  0  0
    4.7994   -2.1187    0.0000 O   0  0  0  0  0  0  0  0  0  0  0  0
  1  2  1  0
  2  3  1  0
  2  4  1  0
  4  5  1  6
  5  6  1  0
  6  7  1  0
  7  8  1  0
  7  9  1  0
  9 10  2  3
 10 11  1  0
 11 12  1  0
 12 13  1  0
 13 14  1  0
 14 15  1  0
 15 16  1  0
  4 17  1  0
 17 18  1  0
 17 19  2  0
 16  9  1  0
M  ISO  4   1   1   3   3   8   4  18   2
V    1 *
V    3 *
V    8 *
V   18 *
M  END
>  <symbol>  (994) 
TcoOrn

>  <m_abbr>  (994) 
TcoOrn

>  <m_name>  (994) 
TcoOrn

>  <m_type>  (994) 
aa

>  <m_subtype>  (994) 
modified

>  <m_Rgroups>  (994) 
[H],[OH],[H],[H]

>  <m_chem_types>  (994) 
1:backbone_n,2:backbone_c,3:backbone_n_mod,4:tco_c

$$$$

     RDKit          2D

 18 18  0  0  0  0  0  0  0  0999 V2000
    4.5406   -1.4707    0.0000 R   0  0  0  0  0  0  0  0  0  0  0  0
    3.0727   -1.1621    0.0000 N   0  0  0  0  0  0  0  0  0  0  0  0
    2.0715   -2.2791    0.0000 R   0  0  0  0  0  0  0  0  0  0  0  0
    2.6060    0.2634    0.0000 C   0  0  0  0  0  0  0  0  0  0  0  0
    1.1380    0.5720    0.0000 C   0  0  0  0  0  0  0  0  0  0  0  0
    0.1369   -0.5450    0.0000 C   0  0  0  0  0  0  0  0  0  0  0  0
    0.6036   -1.9705    0.0000 R   0  0  0  0  0  0  0  0  0  0  0  0
   -1.3311   -0.2364    0.0000 C   0  0  0  0  0  0  0  0  0  0  0  0
   -2.1779   -1.4745    0.0000 C   0  0  0  0  0  0  0  0  0  0  0  0
   -3.6522   -1.7512    0.0000 C   0  0  0  0  0  0  0  0  0  0  0  0
   -4.8903   -0.9044    0.0000 C   0  0  0  0  0  0  0  0  0  0  0  0
   -5.1669    0.5699    0.0000 C   0  0  0  0  0  0  0  0  0  0  0  0
   -4.3201    1.8080    0.0000 C   0  0  0  0  0  0  0  0  0  0  0  0
   -2.8458    2.0847    0.0000 C   0  0  0  0  0  0  0  0  0  0  0  0
   -1.6077    1.2378    0.0000 C   0  0  0  0  0  0  0  0  0  0  0  0
    3.6072    1.3804    0.0000 C   0  0  0  0  0  0  0  0  0  0  0  0
    5.0751    1.0718    0.0000 R   0  0  0  0  0  0  0  0  0  0  0  0
    3.1404    2.8059    0.0000 O   0  0  0  0  0  0  0  0  0  0  0  0
  1  2  1  0
  2  3  1  0
  2  4  1  0
  4  5  1  1
  5  6  1  0
  6  7  1  0
  6  8  1  0
  8  9  2  3
  9 10  1  0
 10 11  1  0
 11 12  1  0
 12 13  1  0
 13 14  1  0
 14 15  1  0
  4 16  1  0
 16 17  1  0
 16 18  2  0
 15  8  1  0
M  ISO  4   1   1   3   3   7   4  17   2
V    1 *
V    3 *
V    7 *
V   17 *
M  END
>  <symbol>  (995) 
TcoDab

>  <m_abbr>  (995) 
TcoDab

>  <m_name>  (995) 
TcoDab

>  <m_type>  (995) 
aa

>  <m_subtype>  (995) 
modified

>  <m_Rgroups>  (995) 
[H],[OH],[H],[H]

>  <m_chem_types>  (995) 
1:backbone_n,2:backbone_c,3:backbone_n_mod,4:tco_c

$$$$

     RDKit          2D

 14 13  0  0  0  0  0  0  0  0999 V2000
   -4.8123   -0.3496    0.0000 R   0  0  0  0  0  0  0  0  0  0  0  0
   -3.4623   -1.0035    0.0000 N   0  0  0  0  0  0  0  0  0  0  0  0
   -3.3537   -2.4996    0.0000 R   0  0  0  0  0  0  0  0  0  0  0  0
   -2.2211   -0.1614    0.0000 C   0  0  0  0  0  0  0  0  0  0  0  0
   -0.8711   -0.8153    0.0000 C   0  0  0  0  0  0  0  0  0  0  0  0
    0.3702    0.0269    0.0000 C   0  0  0  0  0  0  0  0  0  0  0  0
    1.7201   -0.6270    0.0000 C   0  0  0  0  0  0  0  0  0  0  0  0
    2.9614    0.2152    0.0000 C   0  0  0  0  0  0  0  0  0  0  0  0
    4.3114   -0.4387    0.0000 O   0  0  0  0  0  0  0  0  0  0  0  0
    5.5527    0.4034    0.0000 N   0  0  0  0  0  0  0  0  0  0  0  0
    6.9026   -0.2505    0.0000 R   0  0  0  0  0  0  0  0  0  0  0  0
   -2.3298    1.3347    0.0000 C   0  0  0  0  0  0  0  0  0  0  0  0
   -1.0885    2.1768    0.0000 R   0  0  0  0  0  0  0  0  0  0  0  0
   -3.6797    1.9886    0.0000 O   0  0  0  0  0  0  0  0  0  0  0  0
  1  2  1  0
  2  3  1  0
  2  4  1  0
  4  5  1  6
  5  6  1  0
  6  7  1  0
  7  8  1  0
  8  9  1  0
  9 10  1  0
 10 11  1  0
  4 12  1  0
 12 13  1  0
 12 14  2  0
M  ISO  4   1   1   3   3  11   4  13   2
V    1 *
V    3 *
V   11 *
V   13 *
M  END
>  <symbol>  (996) 
AoaLys

>  <m_abbr>  (996) 
AoaLys

>  <m_name>  (996) 
AoaLys

>  <m_type>  (996) 
aa

>  <m_subtype>  (996) 
modified

>  <m_Rgroups>  (996) 
[H],[OH],[H],[H]

>  <m_chem_types>  (996) 
1:backbone_n,2:backbone_c,3:backbone_n_mod,4:aminooxy

$$$$

     RDKit          2D

 13 12  0  0  0  0  0  0  0  0999 V2000
   -4.2869   -0.2967    0.0000 R   0  0  0  0  0  0  0  0  0  0  0  0
   -2.9482   -0.9733    0.0000 N   0  0  0  0  0  0  0  0  0  0  0  0
   -2.8647   -2.4710    0.0000 R   0  0  0  0  0  0  0  0  0  0  0  0
   -1.6929   -0.1521    0.0000 C   0  0  0  0  0  0  0  0  0  0  0  0
   -0.3541   -0.8287    0.0000 C   0  0  0  0  0  0  0  0  0  0  0  0
    0.9012   -0.0075    0.0000 C   0  0  0  0  0  0  0  0  0  0  0  0
    2.2399   -0.6841    0.0000 C   0  0  0  0  0  0  0  0  0  0  0  0
    3.4952    0.1371    0.0000 O   0  0  0  0  0  0  0  0  0  0  0  0
    4.8340   -0.5395    0.0000 N   0  0  0  0  0  0  0  0  0  0  0  0
    6.0892    0.2817    0.0000 R   0  0  0  0  0  0  0  0  0  0  0  0
   -1.7764    1.3455    0.0000 C   0  0  0  0  0  0  0  0  0  0  0  0
   -0.5211    2.1667    0.0000 R   0  0  0  0  0  0  0  0  0  0  0  0
   -3.1151    2.0221    0.0000 O   0  0  0  0  0  0  0  0  0  0  0  0
  1  2  1  0
  2  3  1  0
  2  4  1  0
  4  5  1  6
  5  6  1  0
  6  7  1  0
  7  8  1  0
  8  9  1  0
  9 10  1  0
  4 11  1  0
 11 12  1  0
 11 13  2  0
M  ISO  4   1   1   3   3  10   4  12   2
V    1 *
V    3 *
V   10 *
V   12 *
M  END
>  <symbol>  (997) 
AoaOrn

>  <m_abbr>  (997) 
AoaOrn

>  <m_name>  (997) 
AoaOrn

>  <m_type>  (997) 
aa

>  <m_subtype>  (997) 
modified

>  <m_Rgroups>  (997) 
[H],[OH],[H],[H]

>  <m_chem_types>  (997) 
1:backbone_n,2:backbone_c,3:backbone_n_mod,4:aminooxy

$$$$

     RDKit          2D

 12 11  0  0  0  0  0  0  0  0999 V2000
   -3.7710   -0.3727    0.0000 R   0  0  0  0  0  0  0  0  0  0  0  0
   -2.4149   -1.0137    0.0000 N   0  0  0  0  0  0  0  0  0  0  0  0
   -2.2920   -2.5087    0.0000 R   0  0  0  0  0  0  0  0  0  0  0  0
   -1.1817   -0.1598    0.0000 C   0  0  0  0  0  0  0  0  0  0  0  0
    0.1744   -0.8009    0.0000 C   0  0  0  0  0  0  0  0  0  0  0  0
    1.4077    0.0530    0.0000 C   0  0  0  0  0  0  0  0  0  0  0  0
    2.7638   -0.5881    0.0000 O   0  0  0  0  0  0  0  0  0  0  0  0
    3.9970    0.2658    0.0000 N   0  0  0  0  0  0  0  0  0  0  0  0
    5.3531   -0.3752    0.0000 R   0  0  0  0  0  0  0  0  0  0  0  0
   -1.3045    1.3351    0.0000 C   0  0  0  0  0  0  0  0  0  0  0  0
   -0.0713    2.1890    0.0000 R   0  0  0  0  0  0  0  0  0  0  0  0
   -2.6607    1.9762    0.0000 O   0  0  0  0  0  0  0  0  0  0  0  0
  1  2  1  0
  2  3  1  0
  2  4  1  0
  4  5  1  6
  5  6  1  0
  6  7  1  0
  7  8  1  0
  8  9  1  0
  4 10  1  0
 10 11  1  0
 10 12  2  0
M  ISO  4   1   1   3   3   9   4  11   2
V    1 *
V    3 *
V    9 *
V   11 *
M  END
>  <symbol>  (998) 
AoaDab

>  <m_abbr>  (998) 
AoaDab

>  <m_name>  (998) 
AoaDab

>  <m_type>  (998) 
aa

>  <m_subtype>  (998) 
modified

>  <m_Rgroups>  (998) 
[H],[OH],[H],[H]

>  <m_chem_types>  (998) 
1:backbone_n,2:backbone_c,3:backbone_n_mod,4:aminooxy

$$$$

     RDKit          2D

 11 10  0  0  0  0  0  0  0  0999 V2000
   -3.3018   -0.2248    0.0000 R   0  0  0  0  0  0  0  0  0  0  0  0
   -1.9832   -0.9398    0.0000 N   0  0  0  0  0  0  0  0  0  0  0  0
   -1.9430   -2.4392    0.0000 R   0  0  0  0  0  0  0  0  0  0  0  0
   -0.7047   -0.1553    0.0000 C   0  0  0  0  0  0  0  0  0  0  0  0
    0.6140   -0.8702    0.0000 C   0  0  0  0  0  0  0  0  0  0  0  0
    1.8925   -0.0858    0.0000 O   0  0  0  0  0  0  0  0  0  0  0  0
    3.2111   -0.8007    0.0000 N   0  0  0  0  0  0  0  0  0  0  0  0
    4.4896   -0.0162    0.0000 R   0  0  0  0  0  0  0  0  0  0  0  0
   -0.7448    1.3442    0.0000 C   0  0  0  0  0  0  0  0  0  0  0  0
    0.5337    2.1287    0.0000 R   0  0  0  0  0  0  0  0  0  0  0  0
   -2.0634    2.0592    0.0000 O   0  0  0  0  0  0  0  0  0  0  0  0
  1  2  1  0
  2  3  1  0
  2  4  1  0
  4  5  1  1
  5  6  1  0
  6  7  1  0
  7  8  1  0
  4  9  1  0
  9 10  1  0
  9 11  2  0
M  ISO  4   1   1   3   3   8   4  10   2
V    1 *
V    3 *
V    8 *
V   10 *
M  END
>  <symbol>  (999) 
D_Aoa

>  <m_abbr>  (999) 
D_Aoa

>  <m_name>  (999) 
D_Aoa

>  <m_type>  (999) 
aa

>  <m_subtype>  (999) 
modified

>  <m_Rgroups>  (999) 
[H],[OH],[H],[H]

>  <m_chem_types>  (999) 
1:backbone_n,2:backbone_c,3:backbone_n_mod,4:aminooxy

$$$$

     RDKit          2D

 22 22  0  0  0  0  0  0  0  0999 V2000
    6.4201   -1.2124    0.0000 R   0  0  0  0  0  0  0  0  0  0  0  0
    4.9414   -0.9608    0.0000 N   0  0  0  0  0  0  0  0  0  0  0  0
    3.9841   -2.1155    0.0000 R   0  0  0  0  0  0  0  0  0  0  0  0
    4.4200    0.4457    0.0000 C   0  0  0  0  0  0  0  0  0  0  0  0
    2.9412    0.6974    0.0000 C   0  0  0  0  0  0  0  0  0  0  0  0
    1.9839   -0.4574    0.0000 C   0  0  0  0  0  0  0  0  0  0  0  0
    0.5052   -0.2058    0.0000 C   0  0  0  0  0  0  0  0  0  0  0  0
   -0.4521   -1.3606    0.0000 C   0  0  0  0  0  0  0  0  0  0  0  0
    0.0693   -2.7670    0.0000 R   0  0  0  0  0  0  0  0  0  0  0  0
   -1.9309   -1.1089    0.0000 C   0  0  0  0  0  0  0  0  0  0  0  0
   -2.8882   -2.2637    0.0000 O   0  0  0  0  0  0  0  0  0  0  0  0
   -2.4523    0.2976    0.0000 O   0  0  0  0  0  0  0  0  0  0  0  0
   -3.9310    0.5492    0.0000 N   0  0  0  0  0  0  0  0  0  0  0  0
   -4.5966    1.8935    0.0000 C   0  0  0  0  0  0  0  0  0  0  0  0
   -3.9003    3.2221    0.0000 O   0  0  0  0  0  0  0  0  0  0  0  0
   -6.0807    1.6759    0.0000 C   0  0  0  0  0  0  0  0  0  0  0  0
   -6.3324    0.1971    0.0000 C   0  0  0  0  0  0  0  0  0  0  0  0
   -5.0038   -0.4992    0.0000 C   0  0  0  0  0  0  0  0  0  0  0  0
   -4.7862   -1.9833    0.0000 O   0  0  0  0  0  0  0  0  0  0  0  0
    5.3773    1.6005    0.0000 C   0  0  0  0  0  0  0  0  0  0  0  0
    6.8560    1.3488    0.0000 R   0  0  0  0  0  0  0  0  0  0  0  0
    4.8559    3.0069    0.0000 O   0  0  0  0  0  0  0  0  0  0  0  0
  1  2  1  0
  2  3  1  0
  2  4  1  0
  4  5  1  1
  5  6  1  0
  6  7  1  0
  7  8  1  0
  8  9  1  0
  8 10  1  0
 10 11  2  0
 10 12  1  0
 12 13  1  0
 13 14  1  0
 14 15  2  0
 14 16  1  0
 16 17  1  0
 17 18  1  0
 18 19  2  0
  4 20  1  0
 20 21  1  0
 20 22  2  0
 18 13  1  0
M  ISO  4   1   1   3   3   9   4  21   2
V    1 *
V    3 *
V    9 *
V   21 *
M  END
>  <symbol>  (1000) 
NHSLys

>  <m_abbr>  (1000) 
NHSLys

>  <m_name>  (1000) 
NHSLys

>  <m_type>  (1000) 
aa

>  <m_subtype>  (1000) 
modified

>  <m_Rgroups>  (1000) 
[H],[OH],[H],[H]

>  <m_chem_types>  (1000) 
1:backbone_n,2:backbone_c,3:backbone_n_mod,4:nhs_ester

$$$$

     RDKit          2D

 21 21  0  0  0  0  0  0  0  0999 V2000
    4.2997    2.6539    0.0000 R   0  0  0  0  0  0  0  0  0  0  0  0
    3.2662    1.5669    0.0000 N   0  0  0  0  0  0  0  0  0  0  0  0
    1.8079    1.9185    0.0000 R   0  0  0  0  0  0  0  0  0  0  0  0
    3.6908    0.1282    0.0000 C   0  0  0  0  0  0  0  0  0  0  0  0
    2.6572   -0.9588    0.0000 C   0  0  0  0  0  0  0  0  0  0  0  0
    1.1990   -0.6072    0.0000 C   0  0  0  0  0  0  0  0  0  0  0  0
    0.1654   -1.6943    0.0000 C   0  0  0  0  0  0  0  0  0  0  0  0
    0.5900   -3.1329    0.0000 R   0  0  0  0  0  0  0  0  0  0  0  0
   -1.2928   -1.3427    0.0000 C   0  0  0  0  0  0  0  0  0  0  0  0
   -2.3264   -2.4298    0.0000 O   0  0  0  0  0  0  0  0  0  0  0  0
   -1.7174    0.0959    0.0000 O   0  0  0  0  0  0  0  0  0  0  0  0
   -3.1757    0.4475    0.0000 N   0  0  0  0  0  0  0  0  0  0  0  0
   -3.7483    1.8339    0.0000 C   0  0  0  0  0  0  0  0  0  0  0  0
   -2.9634    3.1121    0.0000 O   0  0  0  0  0  0  0  0  0  0  0  0
   -5.2438    1.7176    0.0000 C   0  0  0  0  0  0  0  0  0  0  0  0
   -5.5954    0.2594    0.0000 C   0  0  0  0  0  0  0  0  0  0  0  0
   -4.3172   -0.5256    0.0000 C   0  0  0  0  0  0  0  0  0  0  0  0
   -4.2010   -2.0210    0.0000 O   0  0  0  0  0  0  0  0  0  0  0  0
    5.1490   -0.2233    0.0000 C   0  0  0  0  0  0  0  0  0  0  0  0
    6.1826    0.8637    0.0000 R   0  0  0  0  0  0  0  0  0  0  0  0
    5.5736   -1.6620    0.0000 O   0  0  0  0  0  0  0  0  0  0  0  0
  1  2  1  0
  2  3  1  0
  2  4  1  0
  4  5  1  6
  5  6  1  0
  6  7  1  0
  7  8  1  0
  7  9  1  0
  9 10  2  0
  9 11  1  0
 11 12  1  0
 12 13  1  0
 13 14  2  0
 13 15  1  0
 15 16  1  0
 16 17  1  0
 17 18  2  0
  4 19  1  0
 19 20  1  0
 19 21  2  0
 17 12  1  0
M  ISO  4   1   1   3   3   8   4  20   2
V    1 *
V    3 *
V    8 *
V   20 *
M  END
>  <symbol>  (1001) 
NHSOrn

>  <m_abbr>  (1001) 
NHSOrn

>  <m_name>  (1001) 
NHSOrn

>  <m_type>  (1001) 
aa

>  <m_subtype>  (1001) 
modified

>  <m_Rgroups>  (1001) 
[H],[OH],[H],[H]

>  <m_chem_types>  (1001) 
1:backbone_n,2:backbone_c,3:backbone_n_mod,4:nhs_ester

$$$$

     RDKit          2D

 20 20  0  0  0  0  0  0  0  0999 V2000
   -5.3131    0.8959    0.0000 R   0  0  0  0  0  0  0  0  0  0  0  0
   -3.8131    0.8997    0.0000 N   0  0  0  0  0  0  0  0  0  0  0  0
   -3.0664    2.2006    0.0000 R   0  0  0  0  0  0  0  0  0  0  0  0
   -3.0598   -0.3975    0.0000 C   0  0  0  0  0  0  0  0  0  0  0  0
   -1.5598   -0.3937    0.0000 C   0  0  0  0  0  0  0  0  0  0  0  0
   -0.8131    0.9073    0.0000 C   0  0  0  0  0  0  0  0  0  0  0  0
   -1.5664    2.2044    0.0000 R   0  0  0  0  0  0  0  0  0  0  0  0
    0.6869    0.9111    0.0000 C   0  0  0  0  0  0  0  0  0  0  0  0
    1.4336    2.2120    0.0000 O   0  0  0  0  0  0  0  0  0  0  0  0
    1.4402   -0.3861    0.0000 O   0  0  0  0  0  0  0  0  0  0  0  0
    2.9402   -0.3823    0.0000 N   0  0  0  0  0  0  0  0  0  0  0  0
    3.8249   -1.5936    0.0000 C   0  0  0  0  0  0  0  0  0  0  0  0
    3.3650   -3.0213    0.0000 O   0  0  0  0  0  0  0  0  0  0  0  0
    5.2503   -1.1264    0.0000 C   0  0  0  0  0  0  0  0  0  0  0  0
    5.2465    0.3736    0.0000 C   0  0  0  0  0  0  0  0  0  0  0  0
    3.8188    0.8335    0.0000 C   0  0  0  0  0  0  0  0  0  0  0  0
    3.3516    2.2589    0.0000 O   0  0  0  0  0  0  0  0  0  0  0  0
   -3.8065   -1.6984    0.0000 C   0  0  0  0  0  0  0  0  0  0  0  0
   -5.3065   -1.7022    0.0000 R   0  0  0  0  0  0  0  0  0  0  0  0
   -3.0532   -2.9955    0.0000 O   0  0  0  0  0  0  0  0  0  0  0  0
  1  2  1  0
  2  3  1  0
  2  4  1  0
  4  5  1  1
  5  6  1  0
  6  7  1  0
  6  8  1  0
  8  9  2  0
  8 10  1  0
 10 11  1  0
 11 12  1  0
 12 13  2  0
 12 14  1  0
 14 15  1  0
 15 16  1  0
 16 17  2  0
  4 18  1  0
 18 19  1  0
 18 20  2  0
 16 11  1  0
M  ISO  4   1   1   3   3   7   4  19   2
V    1 *
V    3 *
V    7 *
V   19 *
M  END
>  <symbol>  (1002) 
NHSDab

>  <m_abbr>  (1002) 
NHSDab

>  <m_name>  (1002) 
NHSDab

>  <m_type>  (1002) 
aa

>  <m_subtype>  (1002) 
modified

>  <m_Rgroups>  (1002) 
[H],[OH],[H],[H]

>  <m_chem_types>  (1002) 
1:backbone_n,2:backbone_c,3:backbone_n_mod,4:nhs_ester

$$$$

     RDKit          2D

 19 19  0  0  0  0  0  0  0  0999 V2000
    2.3959    2.6978    0.0000 R   0  0  0  0  0  0  0  0  0  0  0  0
    1.6257    1.4106    0.0000 N   0  0  0  0  0  0  0  0  0  0  0  0
    0.1259    1.4340    0.0000 R   0  0  0  0  0  0  0  0  0  0  0  0
    2.3553    0.1000    0.0000 C   0  0  0  0  0  0  0  0  0  0  0  0
    3.8551    0.0766    0.0000 C   0  0  0  0  0  0  0  0  0  0  0  0
    4.6253    1.3638    0.0000 R   0  0  0  0  0  0  0  0  0  0  0  0
    4.5848   -1.2340    0.0000 O   0  0  0  0  0  0  0  0  0  0  0  0
    1.5852   -1.1872    0.0000 C   0  0  0  0  0  0  0  0  0  0  0  0
    2.3148   -2.4978    0.0000 R   0  0  0  0  0  0  0  0  0  0  0  0
    0.0853   -1.1638    0.0000 C   0  0  0  0  0  0  0  0  0  0  0  0
   -0.6848   -2.4509    0.0000 O   0  0  0  0  0  0  0  0  0  0  0  0
   -0.6443    0.1468    0.0000 O   0  0  0  0  0  0  0  0  0  0  0  0
   -2.1441    0.1702    0.0000 N   0  0  0  0  0  0  0  0  0  0  0  0
   -3.0068    1.3974    0.0000 C   0  0  0  0  0  0  0  0  0  0  0  0
   -2.5210    2.8165    0.0000 O   0  0  0  0  0  0  0  0  0  0  0  0
   -4.4404    0.9561    0.0000 C   0  0  0  0  0  0  0  0  0  0  0  0
   -4.4638   -0.5437    0.0000 C   0  0  0  0  0  0  0  0  0  0  0  0
   -3.0446   -1.0294    0.0000 C   0  0  0  0  0  0  0  0  0  0  0  0
   -2.6034   -2.4630    0.0000 O   0  0  0  0  0  0  0  0  0  0  0  0
  1  2  1  0
  2  3  1  0
  2  4  1  0
  4  5  1  0
  5  6  1  0
  5  7  2  0
  4  8  1  1
  8  9  1  0
  8 10  1  0
 10 11  2  0
 10 12  1  0
 12 13  1  0
 13 14  1  0
 14 15  2  0
 14 16  1  0
 16 17  1  0
 17 18  1  0
 18 19  2  0
 18 13  1  0
M  ISO  4   1   1   3   3   6   2   9   4
V    1 *
V    3 *
V    6 *
V    9 *
M  END
>  <symbol>  (1003) 
D_NHSAla

>  <m_abbr>  (1003) 
D_NHSAla

>  <m_name>  (1003) 
D_NHSAla

>  <m_type>  (1003) 
aa

>  <m_subtype>  (1003) 
modified

>  <m_Rgroups>  (1003) 
[H],[OH],[H],[H]

>  <m_chem_types>  (1003) 
1:backbone_n,2:backbone_c,3:backbone_n_mod,4:nhs_ester

$$$$

     RDKit          2D

 16 15  0  0  0  0  0  0  0  0999 V2000
   -5.4318   -0.2976    0.0000 R   0  0  0  0  0  0  0  0  0  0  0  0
   -4.0879   -0.9639    0.0000 N   0  0  0  0  0  0  0  0  0  0  0  0
   -3.9929   -2.4609    0.0000 R   0  0  0  0  0  0  0  0  0  0  0  0
   -2.8389   -0.1331    0.0000 C   0  0  0  0  0  0  0  0  0  0  0  0
   -1.4950   -0.7994    0.0000 C   0  0  0  0  0  0  0  0  0  0  0  0
   -0.2460    0.0314    0.0000 C   0  0  0  0  0  0  0  0  0  0  0  0
    1.0979   -0.6349    0.0000 C   0  0  0  0  0  0  0  0  0  0  0  0
    2.3468    0.1959    0.0000 C   0  0  0  0  0  0  0  0  0  0  0  0
    3.6907   -0.4704    0.0000 C   0  0  0  0  0  0  0  0  0  0  0  0
    3.7857   -1.9674    0.0000 O   0  0  0  0  0  0  0  0  0  0  0  0
    4.9397    0.3604    0.0000 N   0  0  0  0  0  0  0  0  0  0  0  0
    6.2836   -0.3059    0.0000 R   0  0  0  0  0  0  0  0  0  0  0  0
    4.8447    1.8574    0.0000 N   0  0  0  0  0  0  0  0  0  0  0  0
   -2.9339    1.3638    0.0000 C   0  0  0  0  0  0  0  0  0  0  0  0
   -1.6849    2.1946    0.0000 R   0  0  0  0  0  0  0  0  0  0  0  0
   -4.2778    2.0301    0.0000 O   0  0  0  0  0  0  0  0  0  0  0  0
  1  2  1  0
  2  3  1  0
  2  4  1  0
  4  5  1  6
  5  6  1  0
  6  7  1  0
  7  8  1  0
  8  9  1  0
  9 10  2  0
  9 11  1  0
 11 12  1  0
 11 13  1  0
  4 14  1  0
 14 15  1  0
 14 16  2  0
M  ISO  4   1   1   3   3  12   4  15   2
V    1 *
V    3 *
V   12 *
V   15 *
M  END
>  <symbol>  (1004) 
HzLys

>  <m_abbr>  (1004) 
HzLys

>  <m_name>  (1004) 
HzLys

>  <m_type>  (1004) 
aa

>  <m_subtype>  (1004) 
modified

>  <m_Rgroups>  (1004) 
[H],[OH],[H],[H]

>  <m_chem_types>  (1004) 
1:backbone_n,2:backbone_c,3:backbone_n_mod,4:hydrazide

$$$$

     RDKit          2D

 15 14  0  0  0  0  0  0  0  0999 V2000
   -4.8314   -0.4209    0.0000 R   0  0  0  0  0  0  0  0  0  0  0  0
   -3.4722   -1.0553    0.0000 N   0  0  0  0  0  0  0  0  0  0  0  0
   -3.3421   -2.5496    0.0000 R   0  0  0  0  0  0  0  0  0  0  0  0
   -2.2432   -0.1954    0.0000 C   0  0  0  0  0  0  0  0  0  0  0  0
   -0.8840   -0.8298    0.0000 C   0  0  0  0  0  0  0  0  0  0  0  0
    0.3451    0.0301    0.0000 C   0  0  0  0  0  0  0  0  0  0  0  0
    1.7043   -0.6044    0.0000 C   0  0  0  0  0  0  0  0  0  0  0  0
    2.9334    0.2555    0.0000 C   0  0  0  0  0  0  0  0  0  0  0  0
    2.8032    1.7499    0.0000 O   0  0  0  0  0  0  0  0  0  0  0  0
    4.2926   -0.3789    0.0000 N   0  0  0  0  0  0  0  0  0  0  0  0
    5.5217    0.4810    0.0000 R   0  0  0  0  0  0  0  0  0  0  0  0
    4.4228   -1.8733    0.0000 N   0  0  0  0  0  0  0  0  0  0  0  0
   -2.3733    1.2989    0.0000 C   0  0  0  0  0  0  0  0  0  0  0  0
   -1.1443    2.1588    0.0000 R   0  0  0  0  0  0  0  0  0  0  0  0
   -3.7326    1.9334    0.0000 O   0  0  0  0  0  0  0  0  0  0  0  0
  1  2  1  0
  2  3  1  0
  2  4  1  0
  4  5  1  6
  5  6  1  0
  6  7  1  0
  7  8  1  0
  8  9  2  0
  8 10  1  0
 10 11  1  0
 10 12  1  0
  4 13  1  0
 13 14  1  0
 13 15  2  0
M  ISO  4   1   1   3   3  11   4  14   2
V    1 *
V    3 *
V   11 *
V   14 *
M  END
>  <symbol>  (1005) 
HzOrn

>  <m_abbr>  (1005) 
HzOrn

>  <m_name>  (1005) 
HzOrn

>  <m_type>  (1005) 
aa

>  <m_subtype>  (1005) 
modified

>  <m_Rgroups>  (1005) 
[H],[OH],[H],[H]

>  <m_chem_types>  (1005) 
1:backbone_n,2:backbone_c,3:backbone_n_mod,4:hydrazide

$$$$

     RDKit          2D

 14 13  0  0  0  0  0  0  0  0999 V2000
   -4.2577   -0.3004    0.0000 R   0  0  0  0  0  0  0  0  0  0  0  0
   -2.9091   -0.9571    0.0000 N   0  0  0  0  0  0  0  0  0  0  0  0
   -2.8035   -2.4534    0.0000 R   0  0  0  0  0  0  0  0  0  0  0  0
   -1.6661   -0.1175    0.0000 C   0  0  0  0  0  0  0  0  0  0  0  0
   -0.3175   -0.7743    0.0000 C   0  0  0  0  0  0  0  0  0  0  0  0
    0.9256    0.0653    0.0000 C   0  0  0  0  0  0  0  0  0  0  0  0
    2.2742   -0.5914    0.0000 C   0  0  0  0  0  0  0  0  0  0  0  0
    2.3797   -2.0877    0.0000 O   0  0  0  0  0  0  0  0  0  0  0  0
    3.5172    0.2481    0.0000 N   0  0  0  0  0  0  0  0  0  0  0  0
    4.8658   -0.4086    0.0000 R   0  0  0  0  0  0  0  0  0  0  0  0
    3.4117    1.7444    0.0000 N   0  0  0  0  0  0  0  0  0  0  0  0
   -1.7716    1.3787    0.0000 C   0  0  0  0  0  0  0  0  0  0  0  0
   -0.5286    2.2183    0.0000 R   0  0  0  0  0  0  0  0  0  0  0  0
   -3.1202    2.0355    0.0000 O   0  0  0  0  0  0  0  0  0  0  0  0
  1  2  1  0
  2  3  1  0
  2  4  1  0
  4  5  1  6
  5  6  1  0
  6  7  1  0
  7  8  2  0
  7  9  1  0
  9 10  1  0
  9 11  1  0
  4 12  1  0
 12 13  1  0
 12 14  2  0
M  ISO  4   1   1   3   3  10   4  13   2
V    1 *
V    3 *
V   10 *
V   13 *
M  END
>  <symbol>  (1006) 
HzDab

>  <m_abbr>  (1006) 
HzDab

>  <m_name>  (1006) 
HzDab

>  <m_type>  (1006) 
aa

>  <m_subtype>  (1006) 
modified

>  <m_Rgroups>  (1006) 
[H],[OH],[H],[H]

>  <m_chem_types>  (1006) 
1:backbone_n,2:backbone_c,3:backbone_n_mod,4:hydrazide

$$$$

     RDKit          2D

 13 12  0  0  0  0  0  0  0  0999 V2000
   -3.6603   -0.5247    0.0000 R   0  0  0  0  0  0  0  0  0  0  0  0
   -2.2769   -1.1044    0.0000 N   0  0  0  0  0  0  0  0  0  0  0  0
   -2.0872   -2.5924    0.0000 R   0  0  0  0  0  0  0  0  0  0  0  0
   -1.0831   -0.1962    0.0000 C   0  0  0  0  0  0  0  0  0  0  0  0
    0.3004   -0.7759    0.0000 C   0  0  0  0  0  0  0  0  0  0  0  0
    1.4942    0.1323    0.0000 C   0  0  0  0  0  0  0  0  0  0  0  0
    1.3045    1.6202    0.0000 O   0  0  0  0  0  0  0  0  0  0  0  0
    2.8776   -0.4475    0.0000 N   0  0  0  0  0  0  0  0  0  0  0  0
    4.0714    0.4608    0.0000 R   0  0  0  0  0  0  0  0  0  0  0  0
    3.0672   -1.9354    0.0000 N   0  0  0  0  0  0  0  0  0  0  0  0
   -1.2727    1.2918    0.0000 C   0  0  0  0  0  0  0  0  0  0  0  0
   -0.0789    2.2000    0.0000 R   0  0  0  0  0  0  0  0  0  0  0  0
   -2.6562    1.8715    0.0000 O   0  0  0  0  0  0  0  0  0  0  0  0
  1  2  1  0
  2  3  1  0
  2  4  1  0
  4  5  1  1
  5  6  1  0
  6  7  2  0
  6  8  1  0
  8  9  1  0
  8 10  1  0
  4 11  1  0
 11 12  1  0
 11 13  2  0
M  ISO  4   1   1   3   3   9   4  12   2
V    1 *
V    3 *
V    9 *
V   12 *
M  END
>  <symbol>  (1007) 
D_HzAla

>  <m_abbr>  (1007) 
D_HzAla

>  <m_name>  (1007) 
D_HzAla

>  <m_type>  (1007) 
aa

>  <m_subtype>  (1007) 
modified

>  <m_Rgroups>  (1007) 
[H],[OH],[H],[H]

>  <m_chem_types>  (1007) 
1:backbone_n,2:backbone_c,3:backbone_n_mod,4:hydrazide

$$$$

     RDKit          2D

 18 17  0  0  0  0  0  0  0  0999 V2000
   -5.3238    0.4214    0.0000 R   0  0  0  0  0  0  0  0  0  0  0  0
   -4.2440   -0.6198    0.0000 N   0  0  0  0  0  0  0  0  0  0  0  0
   -4.6058   -2.0755    0.0000 R   0  0  0  0  0  0  0  0  0  0  0  0
   -2.8025   -0.2052    0.0000 C   0  0  0  0  0  0  0  0  0  0  0  0
   -1.7226   -1.2463    0.0000 C   0  0  0  0  0  0  0  0  0  0  0  0
   -0.2811   -0.8318    0.0000 C   0  0  0  0  0  0  0  0  0  0  0  0
    0.7988   -1.8729    0.0000 C   0  0  0  0  0  0  0  0  0  0  0  0
    2.2403   -1.4583    0.0000 N   0  0  0  0  0  0  0  0  0  0  0  0
    3.3201   -2.4995    0.0000 R   0  0  0  0  0  0  0  0  0  0  0  0
    2.6021   -0.0026    0.0000 C   0  0  0  0  0  0  0  0  0  0  0  0
    1.5223    1.0385    0.0000 N   0  0  0  0  0  0  0  0  0  0  0  0
    1.8840    2.4943    0.0000 R   0  0  0  0  0  0  0  0  0  0  0  0
    4.0437    0.4120    0.0000 N   0  0  0  0  0  0  0  0  0  0  0  0
    4.4054    1.8677    0.0000 R   0  0  0  0  0  0  0  0  0  0  0  0
    5.1235   -0.6292    0.0000 R   0  0  0  0  0  0  0  0  0  0  0  0
   -2.4407    1.2505    0.0000 C   0  0  0  0  0  0  0  0  0  0  0  0
   -0.9991    1.6651    0.0000 R   0  0  0  0  0  0  0  0  0  0  0  0
   -3.5205    2.2917    0.0000 O   0  0  0  0  0  0  0  0  0  0  0  0
  1  2  1  0
  2  3  1  0
  2  4  1  0
  4  5  1  6
  5  6  1  0
  6  7  1  0
  7  8  1  0
  8  9  1  0
  8 10  1  0
 10 11  2  3
 11 12  1  0
 10 13  1  0
 13 14  1  0
 13 15  1  0
  4 16  1  0
 16 17  1  0
 16 18  2  0
M  ISO  7   1   1   3   3   9   5  12   6  14   4  15   7  17   2
V    1 *
V    3 *
V    9 *
V   12 *
V   14 *
V   15 *
V   17 *
M  END
>  <symbol>  (1008) 
R

>  <m_abbr>  (1008) 
R

>  <m_name>  (1008) 
R

>  <m_type>  (1008) 
aa

>  <m_subtype>  (1008) 
modified

>  <m_Rgroups>  (1008) 
[H],[OH],[H],[H],[H],[H],[H]

>  <m_chem_types>  (1008) 
1:backbone_n,2:backbone_c,3:backbone_n_mod,4:amine_primary,5:guanidinium,6:guanidinium_imine,7:amine_secondary

$$$$

     RDKit          2D

 18 17  0  0  0  0  0  0  0  0999 V2000
   -5.3238    0.4214    0.0000 R   0  0  0  0  0  0  0  0  0  0  0  0
   -4.2440   -0.6198    0.0000 N   0  0  0  0  0  0  0  0  0  0  0  0
   -4.6058   -2.0755    0.0000 R   0  0  0  0  0  0  0  0  0  0  0  0
   -2.8025   -0.2052    0.0000 C   0  0  0  0  0  0  0  0  0  0  0  0
   -1.7226   -1.2463    0.0000 C   0  0  0  0  0  0  0  0  0  0  0  0
   -0.2811   -0.8318    0.0000 C   0  0  0  0  0  0  0  0  0  0  0  0
    0.7988   -1.8729    0.0000 C   0  0  0  0  0  0  0  0  0  0  0  0
    2.2403   -1.4583    0.0000 N   0  0  0  0  0  0  0  0  0  0  0  0
    3.3201   -2.4995    0.0000 R   0  0  0  0  0  0  0  0  0  0  0  0
    2.6021   -0.0026    0.0000 C   0  0  0  0  0  0  0  0  0  0  0  0
    1.5223    1.0385    0.0000 N   0  0  0  0  0  0  0  0  0  0  0  0
    1.8840    2.4943    0.0000 R   0  0  0  0  0  0  0  0  0  0  0  0
    4.0437    0.4120    0.0000 N   0  0  0  0  0  0  0  0  0  0  0  0
    4.4054    1.8677    0.0000 R   0  0  0  0  0  0  0  0  0  0  0  0
    5.1235   -0.6292    0.0000 R   0  0  0  0  0  0  0  0  0  0  0  0
   -2.4407    1.2505    0.0000 C   0  0  0  0  0  0  0  0  0  0  0  0
   -0.9991    1.6651    0.0000 R   0  0  0  0  0  0  0  0  0  0  0  0
   -3.5205    2.2917    0.0000 O   0  0  0  0  0  0  0  0  0  0  0  0
  1  2  1  0
  2  3  1  0
  2  4  1  0
  4  5  1  1
  5  6  1  0
  6  7  1  0
  7  8  1  0
  8  9  1  0
  8 10  1  0
 10 11  2  3
 11 12  1  0
 10 13  1  0
 13 14  1  0
 13 15  1  0
  4 16  1  0
 16 17  1  0
 16 18  2  0
M  ISO  7   1   1   3   3   9   5  12   6  14   4  15   7  17   2
V    1 *
V    3 *
V    9 *
V   12 *
V   14 *
V   15 *
V   17 *
M  END
>  <symbol>  (1009) 
DArg

>  <m_abbr>  (1009) 
DArg

>  <m_name>  (1009) 
DArg

>  <m_type>  (1009) 
aa

>  <m_subtype>  (1009) 
modified

>  <m_Rgroups>  (1009) 
[H],[OH],[H],[H],[H],[H],[H]

>  <m_chem_types>  (1009) 
1:backbone_n,2:backbone_c,3:backbone_n_mod,4:amine_primary,5:guanidinium,6:guanidinium_imine,7:amine_secondary

$$$$

     RDKit          2D

 18 17  0  0  0  0  0  0  0  0999 V2000
   -5.3238    0.4214    0.0000 R   0  0  0  0  0  0  0  0  0  0  0  0
   -4.2440   -0.6198    0.0000 N   0  0  0  0  0  0  0  0  0  0  0  0
   -4.6058   -2.0755    0.0000 R   0  0  0  0  0  0  0  0  0  0  0  0
   -2.8025   -0.2052    0.0000 C   0  0  0  0  0  0  0  0  0  0  0  0
   -1.7226   -1.2463    0.0000 C   0  0  0  0  0  0  0  0  0  0  0  0
   -0.2811   -0.8318    0.0000 C   0  0  0  0  0  0  0  0  0  0  0  0
    0.7988   -1.8729    0.0000 C   0  0  0  0  0  0  0  0  0  0  0  0
    2.2403   -1.4583    0.0000 N   0  0  0  0  0  0  0  0  0  0  0  0
    3.3201   -2.4995    0.0000 R   0  0  0  0  0  0  0  0  0  0  0  0
    2.6021   -0.0026    0.0000 C   0  0  0  0  0  0  0  0  0  0  0  0
    1.5223    1.0385    0.0000 N   0  0  0  0  0  0  0  0  0  0  0  0
    1.8840    2.4943    0.0000 R   0  0  0  0  0  0  0  0  0  0  0  0
    4.0437    0.4120    0.0000 N   0  0  0  0  0  0  0  0  0  0  0  0
    4.4054    1.8677    0.0000 R   0  0  0  0  0  0  0  0  0  0  0  0
    5.1235   -0.6292    0.0000 R   0  0  0  0  0  0  0  0  0  0  0  0
   -2.4407    1.2505    0.0000 C   0  0  0  0  0  0  0  0  0  0  0  0
   -0.9991    1.6651    0.0000 R   0  0  0  0  0  0  0  0  0  0  0  0
   -3.5205    2.2917    0.0000 O   0  0  0  0  0  0  0  0  0  0  0  0
  1  2  1  0
  2  3  1  0
  2  4  1  0
  4  5  1  6
  5  6  1  0
  6  7  1  0
  7  8  1  0
  8  9  1  0
  8 10  1  0
 10 11  2  3
 11 12  1  0
 10 13  1  0
 13 14  1  0
 13 15  1  0
  4 16  1  0
 16 17  1  0
 16 18  2  0
M  ISO  7   1   1   3   3   9   5  12   6  14   4  15   7  17   2
V    1 *
V    3 *
V    9 *
V   12 *
V   14 *
V   15 *
V   17 *
M  END
>  <symbol>  (1010) 
Nrg

>  <m_abbr>  (1010) 
Nrg

>  <m_name>  (1010) 
Nrg

>  <m_type>  (1010) 
aa

>  <m_subtype>  (1010) 
modified

>  <m_Rgroups>  (1010) 
[H],[OH],[H],[H],[H],[H],[H]

>  <m_chem_types>  (1010) 
1:backbone_n,2:backbone_c,3:backbone_n_mod,4:amine_primary,5:guanidinium,6:guanidinium_imine,7:amine_secondary

$$$$

     RDKit          2D

 18 17  0  0  0  0  0  0  0  0999 V2000
   -5.3238    0.4214    0.0000 R   0  0  0  0  0  0  0  0  0  0  0  0
   -4.2440   -0.6198    0.0000 N   0  0  0  0  0  0  0  0  0  0  0  0
   -4.6058   -2.0755    0.0000 R   0  0  0  0  0  0  0  0  0  0  0  0
   -2.8025   -0.2052    0.0000 C   0  0  0  0  0  0  0  0  0  0  0  0
   -1.7226   -1.2463    0.0000 C   0  0  0  0  0  0  0  0  0  0  0  0
   -0.2811   -0.8318    0.0000 C   0  0  0  0  0  0  0  0  0  0  0  0
    0.7988   -1.8729    0.0000 C   0  0  0  0  0  0  0  0  0  0  0  0
    2.2403   -1.4583    0.0000 N   0  0  0  0  0  0  0  0  0  0  0  0
    3.3201   -2.4995    0.0000 R   0  0  0  0  0  0  0  0  0  0  0  0
    2.6021   -0.0026    0.0000 C   0  0  0  0  0  0  0  0  0  0  0  0
    1.5223    1.0385    0.0000 N   0  0  0  0  0  0  0  0  0  0  0  0
    1.8840    2.4943    0.0000 R   0  0  0  0  0  0  0  0  0  0  0  0
    4.0437    0.4120    0.0000 N   0  0  0  0  0  0  0  0  0  0  0  0
    4.4054    1.8677    0.0000 R   0  0  0  0  0  0  0  0  0  0  0  0
    5.1235   -0.6292    0.0000 R   0  0  0  0  0  0  0  0  0  0  0  0
   -2.4407    1.2505    0.0000 C   0  0  0  0  0  0  0  0  0  0  0  0
   -0.9991    1.6651    0.0000 R   0  0  0  0  0  0  0  0  0  0  0  0
   -3.5205    2.2917    0.0000 O   0  0  0  0  0  0  0  0  0  0  0  0
  1  2  1  0
  2  3  1  0
  2  4  1  0
  4  5  1  1
  5  6  1  0
  6  7  1  0
  7  8  1  0
  8  9  1  0
  8 10  1  0
 10 11  2  3
 11 12  1  0
 10 13  1  0
 13 14  1  0
 13 15  1  0
  4 16  1  0
 16 17  1  0
 16 18  2  0
M  ISO  7   1   1   3   3   9   5  12   6  14   4  15   7  17   2
V    1 *
V    3 *
V    9 *
V   12 *
V   14 *
V   15 *
V   17 *
M  END
>  <symbol>  (1011) 
D_Nrg

>  <m_abbr>  (1011) 
D_Nrg

>  <m_name>  (1011) 
D_Nrg

>  <m_type>  (1011) 
aa

>  <m_subtype>  (1011) 
modified

>  <m_Rgroups>  (1011) 
[H],[OH],[H],[H],[H],[H],[H]

>  <m_chem_types>  (1011) 
1:backbone_n,2:backbone_c,3:backbone_n_mod,4:amine_primary,5:guanidinium,6:guanidinium_imine,7:amine_secondary

$$$$

     RDKit          2D

 18 17  0  0  0  0  0  0  0  0999 V2000
   -5.3238    0.4214    0.0000 R   0  0  0  0  0  0  0  0  0  0  0  0
   -4.2440   -0.6198    0.0000 N   0  0  0  0  0  0  0  0  0  0  0  0
   -4.6058   -2.0755    0.0000 R   0  0  0  0  0  0  0  0  0  0  0  0
   -2.8025   -0.2052    0.0000 C   0  0  0  0  0  0  0  0  0  0  0  0
   -1.7226   -1.2463    0.0000 C   0  0  0  0  0  0  0  0  0  0  0  0
   -0.2811   -0.8318    0.0000 C   0  0  0  0  0  0  0  0  0  0  0  0
    0.7988   -1.8729    0.0000 C   0  0  0  0  0  0  0  0  0  0  0  0
    2.2403   -1.4583    0.0000 N   0  0  0  0  0  0  0  0  0  0  0  0
    3.3201   -2.4995    0.0000 R   0  0  0  0  0  0  0  0  0  0  0  0
    2.6021   -0.0026    0.0000 C   0  0  0  0  0  0  0  0  0  0  0  0
    1.5223    1.0385    0.0000 N   0  0  0  0  0  0  0  0  0  0  0  0
    1.8840    2.4943    0.0000 R   0  0  0  0  0  0  0  0  0  0  0  0
    4.0437    0.4120    0.0000 N   0  0  0  0  0  0  0  0  0  0  0  0
    4.4054    1.8677    0.0000 R   0  0  0  0  0  0  0  0  0  0  0  0
    5.1235   -0.6292    0.0000 R   0  0  0  0  0  0  0  0  0  0  0  0
   -2.4407    1.2505    0.0000 C   0  0  0  0  0  0  0  0  0  0  0  0
   -0.9991    1.6651    0.0000 R   0  0  0  0  0  0  0  0  0  0  0  0
   -3.5205    2.2917    0.0000 O   0  0  0  0  0  0  0  0  0  0  0  0
  1  2  1  0
  2  3  1  0
  2  4  1  0
  4  5  1  1
  5  6  1  0
  6  7  1  0
  7  8  1  0
  8  9  1  0
  8 10  1  0
 10 11  2  3
 11 12  1  0
 10 13  1  0
 13 14  1  0
 13 15  1  0
  4 16  1  0
 16 17  1  0
 16 18  2  0
M  ISO  7   1   1   3   3   9   5  12   6  14   4  15   7  17   2
V    1 *
V    3 *
V    9 *
V   12 *
V   14 *
V   15 *
V   17 *
M  END
>  <symbol>  (1012) 
dR

>  <m_abbr>  (1012) 
dR

>  <m_name>  (1012) 
dR

>  <m_type>  (1012) 
aa

>  <m_subtype>  (1012) 
modified

>  <m_Rgroups>  (1012) 
[H],[OH],[H],[H],[H],[H],[H]

>  <m_chem_types>  (1012) 
1:backbone_n,2:backbone_c,3:backbone_n_mod,4:amine_primary,5:guanidinium,6:guanidinium_imine,7:amine_secondary

$$$$

     RDKit          2D

 18 17  0  0  0  0  0  0  0  0999 V2000
   -5.3238    0.4214    0.0000 R   0  0  0  0  0  0  0  0  0  0  0  0
   -4.2440   -0.6198    0.0000 N   0  0  0  0  0  0  0  0  0  0  0  0
   -4.6058   -2.0755    0.0000 C   0  0  0  0  0  0  0  0  0  0  0  0
   -2.8025   -0.2052    0.0000 C   0  0  0  0  0  0  0  0  0  0  0  0
   -1.7226   -1.2463    0.0000 C   0  0  0  0  0  0  0  0  0  0  0  0
   -0.2811   -0.8318    0.0000 C   0  0  0  0  0  0  0  0  0  0  0  0
    0.7988   -1.8729    0.0000 C   0  0  0  0  0  0  0  0  0  0  0  0
    2.2403   -1.4583    0.0000 N   0  0  0  0  0  0  0  0  0  0  0  0
    3.3201   -2.4995    0.0000 R   0  0  0  0  0  0  0  0  0  0  0  0
    2.6021   -0.0026    0.0000 C   0  0  0  0  0  0  0  0  0  0  0  0
    1.5223    1.0385    0.0000 N   0  0  0  0  0  0  0  0  0  0  0  0
    1.8840    2.4943    0.0000 R   0  0  0  0  0  0  0  0  0  0  0  0
    4.0437    0.4120    0.0000 N   0  0  0  0  0  0  0  0  0  0  0  0
    4.4054    1.8677    0.0000 R   0  0  0  0  0  0  0  0  0  0  0  0
    5.1235   -0.6292    0.0000 R   0  0  0  0  0  0  0  0  0  0  0  0
   -2.4407    1.2505    0.0000 C   0  0  0  0  0  0  0  0  0  0  0  0
   -0.9991    1.6651    0.0000 R   0  0  0  0  0  0  0  0  0  0  0  0
   -3.5205    2.2917    0.0000 O   0  0  0  0  0  0  0  0  0  0  0  0
  1  2  1  0
  2  3  1  0
  2  4  1  0
  4  5  1  6
  5  6  1  0
  6  7  1  0
  7  8  1  0
  8  9  1  0
  8 10  1  0
 10 11  2  3
 11 12  1  0
 10 13  1  0
 13 14  1  0
 13 15  1  0
  4 16  1  0
 16 17  1  0
 16 18  2  0
M  ISO  6   1   1   9   4  12   5  14   3  15   6  17   2
V    1 *
V    9 *
V   12 *
V   14 *
V   15 *
V   17 *
M  END
>  <symbol>  (1013) 
meR

>  <m_abbr>  (1013) 
meR

>  <m_name>  (1013) 
meR

>  <m_type>  (1013) 
aa

>  <m_subtype>  (1013) 
modified

>  <m_Rgroups>  (1013) 
[H],[OH],[H],[H],[H],[H]

>  <m_chem_types>  (1013) 
1:backbone_n,2:backbone_c,3:amine_primary,4:guanidinium,5:guanidinium_imine,6:amine_secondary

$$$$

     RDKit          2D

 18 17  0  0  0  0  0  0  0  0999 V2000
   -5.3238    0.4214    0.0000 R   0  0  0  0  0  0  0  0  0  0  0  0
   -4.2440   -0.6198    0.0000 N   0  0  0  0  0  0  0  0  0  0  0  0
   -4.6058   -2.0755    0.0000 C   0  0  0  0  0  0  0  0  0  0  0  0
   -2.8025   -0.2052    0.0000 C   0  0  0  0  0  0  0  0  0  0  0  0
   -1.7226   -1.2463    0.0000 C   0  0  0  0  0  0  0  0  0  0  0  0
   -0.2811   -0.8318    0.0000 C   0  0  0  0  0  0  0  0  0  0  0  0
    0.7988   -1.8729    0.0000 C   0  0  0  0  0  0  0  0  0  0  0  0
    2.2403   -1.4583    0.0000 N   0  0  0  0  0  0  0  0  0  0  0  0
    3.3201   -2.4995    0.0000 R   0  0  0  0  0  0  0  0  0  0  0  0
    2.6021   -0.0026    0.0000 C   0  0  0  0  0  0  0  0  0  0  0  0
    1.5223    1.0385    0.0000 N   0  0  0  0  0  0  0  0  0  0  0  0
    1.8840    2.4943    0.0000 R   0  0  0  0  0  0  0  0  0  0  0  0
    4.0437    0.4120    0.0000 N   0  0  0  0  0  0  0  0  0  0  0  0
    4.4054    1.8677    0.0000 R   0  0  0  0  0  0  0  0  0  0  0  0
    5.1235   -0.6292    0.0000 R   0  0  0  0  0  0  0  0  0  0  0  0
   -2.4407    1.2505    0.0000 C   0  0  0  0  0  0  0  0  0  0  0  0
   -0.9991    1.6651    0.0000 R   0  0  0  0  0  0  0  0  0  0  0  0
   -3.5205    2.2917    0.0000 O   0  0  0  0  0  0  0  0  0  0  0  0
  1  2  1  0
  2  3  1  0
  2  4  1  0
  4  5  1  1
  5  6  1  0
  6  7  1  0
  7  8  1  0
  8  9  1  0
  8 10  1  0
 10 11  2  3
 11 12  1  0
 10 13  1  0
 13 14  1  0
 13 15  1  0
  4 16  1  0
 16 17  1  0
 16 18  2  0
M  ISO  6   1   1   9   4  12   5  14   3  15   6  17   2
V    1 *
V    9 *
V   12 *
V   14 *
V   15 *
V   17 *
M  END
>  <symbol>  (1014) 
D_meR

>  <m_abbr>  (1014) 
D_meR

>  <m_name>  (1014) 
D_meR

>  <m_type>  (1014) 
aa

>  <m_subtype>  (1014) 
modified

>  <m_Rgroups>  (1014) 
[H],[OH],[H],[H],[H],[H]

>  <m_chem_types>  (1014) 
1:backbone_n,2:backbone_c,3:amine_primary,4:guanidinium,5:guanidinium_imine,6:amine_secondary

$$$$

     RDKit          2D

 19 18  0  0  0  0  0  0  0  0999 V2000
   -3.6606    2.2419    0.0000 R   0  0  0  0  0  0  0  0  0  0  0  0
   -3.9484    0.7698    0.0000 N   0  0  0  0  0  0  0  0  0  0  0  0
   -5.3672    0.2829    0.0000 R   0  0  0  0  0  0  0  0  0  0  0  0
   -2.8174   -0.2155    0.0000 C   0  0  0  0  0  0  0  0  0  0  0  0
   -3.8027   -1.3465    0.0000 C   0  0  0  0  0  0  0  0  0  0  0  0
   -1.8321    0.9155    0.0000 C   0  0  0  0  0  0  0  0  0  0  0  0
   -0.3599    0.6277    0.0000 C   0  0  0  0  0  0  0  0  0  0  0  0
    0.6254    1.7587    0.0000 C   0  0  0  0  0  0  0  0  0  0  0  0
    2.0975    1.4709    0.0000 N   0  0  0  0  0  0  0  0  0  0  0  0
    3.0828    2.6019    0.0000 R   0  0  0  0  0  0  0  0  0  0  0  0
    2.5843    0.0521    0.0000 C   0  0  0  0  0  0  0  0  0  0  0  0
    1.5990   -1.0789    0.0000 N   0  0  0  0  0  0  0  0  0  0  0  0
    2.0859   -2.4977    0.0000 R   0  0  0  0  0  0  0  0  0  0  0  0
    4.0565   -0.2357    0.0000 N   0  0  0  0  0  0  0  0  0  0  0  0
    4.5433   -1.6545    0.0000 R   0  0  0  0  0  0  0  0  0  0  0  0
    5.0418    0.8953    0.0000 R   0  0  0  0  0  0  0  0  0  0  0  0
   -1.6864   -1.2008    0.0000 C   0  0  0  0  0  0  0  0  0  0  0  0
   -0.2676   -0.7140    0.0000 R   0  0  0  0  0  0  0  0  0  0  0  0
   -1.9742   -2.6730    0.0000 O   0  0  0  0  0  0  0  0  0  0  0  0
  1  2  1  0
  2  3  1  0
  2  4  1  0
  4  5  1  0
  4  6  1  0
  6  7  1  0
  7  8  1  0
  8  9  1  0
  9 10  1  0
  9 11  1  0
 11 12  2  3
 12 13  1  0
 11 14  1  0
 14 15  1  0
 14 16  1  0
  4 17  1  0
 17 18  1  0
 17 19  2  0
M  ISO  7   1   1   3   3  10   5  13   6  15   4  16   7  18   2
V    1 *
V    3 *
V   10 *
V   13 *
V   15 *
V   16 *
V   18 *
M  END
>  <symbol>  (1015) 
aMeArg

>  <m_abbr>  (1015) 
aMeArg

>  <m_name>  (1015) 
aMeArg

>  <m_type>  (1015) 
aa

>  <m_subtype>  (1015) 
modified

>  <m_Rgroups>  (1015) 
[H],[OH],[H],[H],[H],[H],[H]

>  <m_chem_types>  (1015) 
1:backbone_n,2:backbone_c,3:backbone_n_mod,4:amine_primary,5:guanidinium,6:guanidinium_imine,7:amine_secondary

$$$$

     RDKit          2D

 19 18  0  0  0  0  0  0  0  0999 V2000
   -3.6606    2.2419    0.0000 R   0  0  0  0  0  0  0  0  0  0  0  0
   -3.9484    0.7698    0.0000 N   0  0  0  0  0  0  0  0  0  0  0  0
   -5.3672    0.2829    0.0000 R   0  0  0  0  0  0  0  0  0  0  0  0
   -2.8174   -0.2155    0.0000 C   0  0  0  0  0  0  0  0  0  0  0  0
   -3.8027   -1.3465    0.0000 C   0  0  0  0  0  0  0  0  0  0  0  0
   -1.8321    0.9155    0.0000 C   0  0  0  0  0  0  0  0  0  0  0  0
   -0.3599    0.6277    0.0000 C   0  0  0  0  0  0  0  0  0  0  0  0
    0.6254    1.7587    0.0000 C   0  0  0  0  0  0  0  0  0  0  0  0
    2.0975    1.4709    0.0000 N   0  0  0  0  0  0  0  0  0  0  0  0
    3.0828    2.6019    0.0000 R   0  0  0  0  0  0  0  0  0  0  0  0
    2.5843    0.0521    0.0000 C   0  0  0  0  0  0  0  0  0  0  0  0
    1.5990   -1.0789    0.0000 N   0  0  0  0  0  0  0  0  0  0  0  0
    2.0859   -2.4977    0.0000 R   0  0  0  0  0  0  0  0  0  0  0  0
    4.0565   -0.2357    0.0000 N   0  0  0  0  0  0  0  0  0  0  0  0
    4.5433   -1.6545    0.0000 R   0  0  0  0  0  0  0  0  0  0  0  0
    5.0418    0.8953    0.0000 R   0  0  0  0  0  0  0  0  0  0  0  0
   -1.6864   -1.2008    0.0000 C   0  0  0  0  0  0  0  0  0  0  0  0
   -0.2676   -0.7140    0.0000 R   0  0  0  0  0  0  0  0  0  0  0  0
   -1.9742   -2.6730    0.0000 O   0  0  0  0  0  0  0  0  0  0  0  0
  1  2  1  0
  2  3  1  0
  2  4  1  0
  4  5  1  1
  4  6  1  0
  6  7  1  0
  7  8  1  0
  8  9  1  0
  9 10  1  0
  9 11  1  0
 11 12  2  3
 12 13  1  0
 11 14  1  0
 14 15  1  0
 14 16  1  0
  4 17  1  0
 17 18  1  0
 17 19  2  0
M  ISO  7   1   1   3   3  10   5  13   6  15   4  16   7  18   2
V    1 *
V    3 *
V   10 *
V   13 *
V   15 *
V   16 *
V   18 *
M  END
>  <symbol>  (1016) 
D_aMeArg

>  <m_abbr>  (1016) 
D_aMeArg

>  <m_name>  (1016) 
D_aMeArg

>  <m_type>  (1016) 
aa

>  <m_subtype>  (1016) 
modified

>  <m_Rgroups>  (1016) 
[H],[OH],[H],[H],[H],[H],[H]

>  <m_chem_types>  (1016) 
1:backbone_n,2:backbone_c,3:backbone_n_mod,4:amine_primary,5:guanidinium,6:guanidinium_imine,7:amine_secondary

$$$$

     RDKit          2D

 19 18  0  0  0  0  0  0  0  0999 V2000
   -5.4590    0.5889    0.0000 R   0  0  0  0  0  0  0  0  0  0  0  0
   -4.4267   -0.4993    0.0000 N   0  0  0  0  0  0  0  0  0  0  0  0
   -4.8530   -1.9375    0.0000 R   0  0  0  0  0  0  0  0  0  0  0  0
   -2.9681   -0.1495    0.0000 C   0  0  0  0  0  0  0  0  0  0  0  0
   -1.9357   -1.2377    0.0000 C   0  0  0  0  0  0  0  0  0  0  0  0
   -0.4771   -0.8879    0.0000 C   0  0  0  0  0  0  0  0  0  0  0  0
    0.5552   -1.9761    0.0000 C   0  0  0  0  0  0  0  0  0  0  0  0
    2.0138   -1.6262    0.0000 N   0  0  0  0  0  0  0  0  0  0  0  0
    3.0461   -2.7145    0.0000 R   0  0  0  0  0  0  0  0  0  0  0  0
    2.4401   -0.1881    0.0000 C   0  0  0  0  0  0  0  0  0  0  0  0
    1.4078    0.9002    0.0000 N   0  0  0  0  0  0  0  0  0  0  0  0
    1.8341    2.3383    0.0000 R   0  0  0  0  0  0  0  0  0  0  0  0
    3.8988    0.1618    0.0000 N   0  0  0  0  0  0  0  0  0  0  0  0
    4.3251    1.5999    0.0000 R   0  0  0  0  0  0  0  0  0  0  0  0
    4.9311   -0.9265    0.0000 R   0  0  0  0  0  0  0  0  0  0  0  0
   -2.5417    1.2887    0.0000 C   0  0  0  0  0  0  0  0  0  0  0  0
   -1.0831    1.6386    0.0000 C   0  0  0  0  0  0  0  0  0  0  0  0
   -0.6568    3.0767    0.0000 R   0  0  0  0  0  0  0  0  0  0  0  0
   -0.0508    0.5503    0.0000 O   0  0  0  0  0  0  0  0  0  0  0  0
  1  2  1  0
  2  3  1  0
  2  4  1  0
  4  5  1  6
  5  6  1  0
  6  7  1  0
  7  8  1  0
  8  9  1  0
  8 10  1  0
 10 11  2  3
 11 12  1  0
 10 13  1  0
 13 14  1  0
 13 15  1  0
  4 16  1  0
 16 17  1  0
 17 18  1  0
 17 19  2  0
M  ISO  7   1   1   3   3   9   5  12   6  14   4  15   7  18   2
V    1 *
V    3 *
V    9 *
V   12 *
V   14 *
V   15 *
V   18 *
M  END
>  <symbol>  (1017) 
b3hArg

>  <m_abbr>  (1017) 
b3hArg

>  <m_name>  (1017) 
b3hArg

>  <m_type>  (1017) 
aa

>  <m_subtype>  (1017) 
modified

>  <m_Rgroups>  (1017) 
[H],[OH],[H],[H],[H],[H],[H]

>  <m_chem_types>  (1017) 
1:backbone_n,2:backbone_c,3:backbone_n_mod,4:amine_primary,5:guanidinium,6:guanidinium_imine,7:amine_secondary

$$$$

     RDKit          2D

 19 18  0  0  0  0  0  0  0  0999 V2000
   -5.4590    0.5889    0.0000 R   0  0  0  0  0  0  0  0  0  0  0  0
   -4.4267   -0.4993    0.0000 N   0  0  0  0  0  0  0  0  0  0  0  0
   -4.8530   -1.9375    0.0000 R   0  0  0  0  0  0  0  0  0  0  0  0
   -2.9681   -0.1495    0.0000 C   0  0  0  0  0  0  0  0  0  0  0  0
   -1.9357   -1.2377    0.0000 C   0  0  0  0  0  0  0  0  0  0  0  0
   -0.4771   -0.8879    0.0000 C   0  0  0  0  0  0  0  0  0  0  0  0
    0.5552   -1.9761    0.0000 C   0  0  0  0  0  0  0  0  0  0  0  0
    2.0138   -1.6262    0.0000 N   0  0  0  0  0  0  0  0  0  0  0  0
    3.0461   -2.7145    0.0000 R   0  0  0  0  0  0  0  0  0  0  0  0
    2.4401   -0.1881    0.0000 C   0  0  0  0  0  0  0  0  0  0  0  0
    1.4078    0.9002    0.0000 N   0  0  0  0  0  0  0  0  0  0  0  0
    1.8341    2.3383    0.0000 R   0  0  0  0  0  0  0  0  0  0  0  0
    3.8988    0.1618    0.0000 N   0  0  0  0  0  0  0  0  0  0  0  0
    4.3251    1.5999    0.0000 R   0  0  0  0  0  0  0  0  0  0  0  0
    4.9311   -0.9265    0.0000 R   0  0  0  0  0  0  0  0  0  0  0  0
   -2.5417    1.2887    0.0000 C   0  0  0  0  0  0  0  0  0  0  0  0
   -1.0831    1.6386    0.0000 C   0  0  0  0  0  0  0  0  0  0  0  0
   -0.6568    3.0767    0.0000 R   0  0  0  0  0  0  0  0  0  0  0  0
   -0.0508    0.5503    0.0000 O   0  0  0  0  0  0  0  0  0  0  0  0
  1  2  1  0
  2  3  1  0
  2  4  1  0
  4  5  1  1
  5  6  1  0
  6  7  1  0
  7  8  1  0
  8  9  1  0
  8 10  1  0
 10 11  2  3
 11 12  1  0
 10 13  1  0
 13 14  1  0
 13 15  1  0
  4 16  1  0
 16 17  1  0
 17 18  1  0
 17 19  2  0
M  ISO  7   1   1   3   3   9   5  12   6  14   4  15   7  18   2
V    1 *
V    3 *
V    9 *
V   12 *
V   14 *
V   15 *
V   18 *
M  END
>  <symbol>  (1018) 
D_b3hArg

>  <m_abbr>  (1018) 
D_b3hArg

>  <m_name>  (1018) 
D_b3hArg

>  <m_type>  (1018) 
aa

>  <m_subtype>  (1018) 
modified

>  <m_Rgroups>  (1018) 
[H],[OH],[H],[H],[H],[H],[H]

>  <m_chem_types>  (1018) 
1:backbone_n,2:backbone_c,3:backbone_n_mod,4:amine_primary,5:guanidinium,6:guanidinium_imine,7:amine_secondary

$$$$

     RDKit          2D

 18 17  0  0  0  0  0  0  0  0999 V2000
   -5.3238    0.4214    0.0000 R   0  0  0  0  0  0  0  0  0  0  0  0
   -4.2440   -0.6198    0.0000 N   0  0  0  0  0  0  0  0  0  0  0  0
   -4.6058   -2.0755    0.0000 R   0  0  0  0  0  0  0  0  0  0  0  0
   -2.8025   -0.2052    0.0000 C   0  0  0  0  0  0  0  0  0  0  0  0
   -1.7226   -1.2463    0.0000 C   0  0  0  0  0  0  0  0  0  0  0  0
   -0.2811   -0.8318    0.0000 C   0  0  0  0  0  0  0  0  0  0  0  0
    0.7988   -1.8729    0.0000 C   0  0  0  0  0  0  0  0  0  0  0  0
    2.2403   -1.4583    0.0000 N   0  0  0  0  0  0  0  0  0  0  0  0
    3.3201   -2.4995    0.0000 R   0  0  0  0  0  0  0  0  0  0  0  0
    2.6021   -0.0026    0.0000 C   0  0  0  0  0  0  0  0  0  0  0  0
    1.5223    1.0385    0.0000 N   0  0  0  0  0  0  0  0  0  0  0  0
    1.8840    2.4943    0.0000 R   0  0  0  0  0  0  0  0  0  0  0  0
    4.0437    0.4120    0.0000 N   0  0  0  0  0  0  0  0  0  0  0  0
    4.4054    1.8677    0.0000 R   0  0  0  0  0  0  0  0  0  0  0  0
    5.1235   -0.6292    0.0000 R   0  0  0  0  0  0  0  0  0  0  0  0
   -2.4407    1.2505    0.0000 C   0  0  0  0  0  0  0  0  0  0  0  0
   -0.9991    1.6651    0.0000 R   0  0  0  0  0  0  0  0  0  0  0  0
   -3.5205    2.2917    0.0000 O   0  0  0  0  0  0  0  0  0  0  0  0
  1  2  1  0
  2  3  1  0
  2  4  1  0
  4  5  1  6
  5  6  1  0
  6  7  1  0
  7  8  1  0
  8  9  1  0
  8 10  1  0
 10 11  2  3
 11 12  1  0
 10 13  1  0
 13 14  1  0
 13 15  1  0
  4 16  1  0
 16 17  1  0
 16 18  2  0
M  ISO  7   1   1   3   3   9   5  12   6  14   4  15   7  17   2
V    1 *
V    3 *
V    9 *
V   12 *
V   14 *
V   15 *
V   17 *
M  END
>  <symbol>  (1019) 
Arg_al

>  <m_abbr>  (1019) 
Arg_al

>  <m_name>  (1019) 
Arg_al

>  <m_type>  (1019) 
aa

>  <m_subtype>  (1019) 
modified

>  <m_Rgroups>  (1019) 
[H],[H],[H],[H],[H],[H],[H]

>  <m_chem_types>  (1019) 
1:backbone_n,2:backbone_c,3:backbone_n_mod,4:amine_primary,5:guanidinium,6:guanidinium_imine,7:amine_secondary

$$$$

     RDKit          2D

 18 17  0  0  0  0  0  0  0  0999 V2000
   -5.0310    0.5018    0.0000 R   0  0  0  0  0  0  0  0  0  0  0  0
   -3.9826   -0.5711    0.0000 N   0  0  0  0  0  0  0  0  0  0  0  0
   -4.3876   -2.0154    0.0000 R   0  0  0  0  0  0  0  0  0  0  0  0
   -2.5294   -0.1996    0.0000 C   0  0  0  0  0  0  0  0  0  0  0  0
   -1.4810   -1.2724    0.0000 C   0  0  0  0  0  0  0  0  0  0  0  0
   -0.0277   -0.9010    0.0000 C   0  0  0  0  0  0  0  0  0  0  0  0
    1.0206   -1.9738    0.0000 C   0  0  0  0  0  0  0  0  0  0  0  0
    2.4739   -1.6023    0.0000 N   0  0  0  0  0  0  0  0  0  0  0  0
    3.5222   -2.6752    0.0000 R   0  0  0  0  0  0  0  0  0  0  0  0
    2.8788   -0.1580    0.0000 C   0  0  0  0  0  0  0  0  0  0  0  0
    4.3321    0.2135    0.0000 N   0  0  0  0  0  0  0  0  0  0  0  0
    4.7370    1.6578    0.0000 R   0  0  0  0  0  0  0  0  0  0  0  0
    1.8305    0.9148    0.0000 N   0  0  0  0  0  0  0  0  0  0  0  0
    2.2354    2.3591    0.0000 C   0  0  0  0  0  0  0  0  0  0  0  0
    0.3772    0.5433    0.0000 C   0  0  0  0  0  0  0  0  0  0  0  0
   -2.1244    1.2447    0.0000 C   0  0  0  0  0  0  0  0  0  0  0  0
   -0.6712    1.6162    0.0000 R   0  0  0  0  0  0  0  0  0  0  0  0
   -3.1728    2.3175    0.0000 O   0  0  0  0  0  0  0  0  0  0  0  0
  1  2  1  0
  2  3  1  0
  2  4  1  0
  4  5  1  1
  5  6  1  0
  6  7  1  0
  7  8  1  0
  8  9  1  0
  8 10  1  0
 10 11  2  3
 11 12  1  0
 10 13  1  0
 13 14  1  0
 13 15  1  0
  4 16  1  0
 16 17  1  0
 16 18  2  0
M  ISO  5   1   1   3   3   9   4  12   5  17   2
V    1 *
V    3 *
V    9 *
V   12 *
V   17 *
M  END
>  <symbol>  (1020) 
ADMA

>  <m_abbr>  (1020) 
ADMA

>  <m_name>  (1020) 
ADMA

>  <m_type>  (1020) 
aa

>  <m_subtype>  (1020) 
modified

>  <m_Rgroups>  (1020) 
[H],[OH],[H],[H],[H]

>  <m_chem_types>  (1020) 
1:backbone_n,2:backbone_c,3:backbone_n_mod,4:guanidinium,5:guanidinium_imine

$$$$

     RDKit          2D

 18 17  0  0  0  0  0  0  0  0999 V2000
   -5.0310    0.5018    0.0000 R   0  0  0  0  0  0  0  0  0  0  0  0
   -3.9826   -0.5711    0.0000 N   0  0  0  0  0  0  0  0  0  0  0  0
   -4.3876   -2.0154    0.0000 R   0  0  0  0  0  0  0  0  0  0  0  0
   -2.5294   -0.1996    0.0000 C   0  0  0  0  0  0  0  0  0  0  0  0
   -1.4810   -1.2724    0.0000 C   0  0  0  0  0  0  0  0  0  0  0  0
   -0.0277   -0.9010    0.0000 C   0  0  0  0  0  0  0  0  0  0  0  0
    1.0206   -1.9738    0.0000 C   0  0  0  0  0  0  0  0  0  0  0  0
    2.4739   -1.6023    0.0000 N   0  0  0  0  0  0  0  0  0  0  0  0
    3.5222   -2.6752    0.0000 R   0  0  0  0  0  0  0  0  0  0  0  0
    2.8788   -0.1580    0.0000 C   0  0  0  0  0  0  0  0  0  0  0  0
    4.3321    0.2135    0.0000 N   0  0  0  0  0  0  0  0  0  0  0  0
    4.7370    1.6578    0.0000 R   0  0  0  0  0  0  0  0  0  0  0  0
    1.8305    0.9148    0.0000 N   0  0  0  0  0  0  0  0  0  0  0  0
    2.2354    2.3591    0.0000 C   0  0  0  0  0  0  0  0  0  0  0  0
    0.3772    0.5433    0.0000 C   0  0  0  0  0  0  0  0  0  0  0  0
   -2.1244    1.2447    0.0000 C   0  0  0  0  0  0  0  0  0  0  0  0
   -0.6712    1.6162    0.0000 R   0  0  0  0  0  0  0  0  0  0  0  0
   -3.1728    2.3175    0.0000 O   0  0  0  0  0  0  0  0  0  0  0  0
  1  2  1  0
  2  3  1  0
  2  4  1  0
  4  5  1  6
  5  6  1  0
  6  7  1  0
  7  8  1  0
  8  9  1  0
  8 10  1  0
 10 11  2  3
 11 12  1  0
 10 13  1  0
 13 14  1  0
 13 15  1  0
  4 16  1  0
 16 17  1  0
 16 18  2  0
M  ISO  5   1   1   3   3   9   4  12   5  17   2
V    1 *
V    3 *
V    9 *
V   12 *
V   17 *
M  END
>  <symbol>  (1021) 
D_ADMA

>  <m_abbr>  (1021) 
D_ADMA

>  <m_name>  (1021) 
D_ADMA

>  <m_type>  (1021) 
aa

>  <m_subtype>  (1021) 
modified

>  <m_Rgroups>  (1021) 
[H],[OH],[H],[H],[H]

>  <m_chem_types>  (1021) 
1:backbone_n,2:backbone_c,3:backbone_n_mod,4:guanidinium,5:guanidinium_imine

$$$$

     RDKit          2D

 20 19  0  0  0  0  0  0  0  0999 V2000
   -5.2252    0.7469    0.0000 R   0  0  0  0  0  0  0  0  0  0  0  0
   -4.2954   -0.4302    0.0000 N   0  0  0  0  0  0  0  0  0  0  0  0
   -4.8499   -1.8239    0.0000 R   0  0  0  0  0  0  0  0  0  0  0  0
   -2.8111   -0.2135    0.0000 C   0  0  0  0  0  0  0  0  0  0  0  0
   -1.8814   -1.3905    0.0000 C   0  0  0  0  0  0  0  0  0  0  0  0
   -0.3971   -1.1739    0.0000 C   0  0  0  0  0  0  0  0  0  0  0  0
    0.5327   -2.3509    0.0000 C   0  0  0  0  0  0  0  0  0  0  0  0
    2.0170   -2.1342    0.0000 N   0  0  0  0  0  0  0  0  0  0  0  0
    2.9468   -3.3113    0.0000 R   0  0  0  0  0  0  0  0  0  0  0  0
    2.5714   -0.7405    0.0000 C   0  0  0  0  0  0  0  0  0  0  0  0
    4.0557   -0.5238    0.0000 N   0  0  0  0  0  0  0  0  0  0  0  0
    4.6102    0.8700    0.0000 R   0  0  0  0  0  0  0  0  0  0  0  0
    1.6417    0.4366    0.0000 N   0  0  0  0  0  0  0  0  0  0  0  0
    0.1574    0.2199    0.0000 R   0  0  0  0  0  0  0  0  0  0  0  0
    2.1961    1.8303    0.0000 N   0  0  0  0  0  0  0  0  0  0  0  0
    3.6804    2.0470    0.0000 O   0  0  0  0  0  0  0  0  0  0  0  0
    1.2663    3.0074    0.0000 O   0  0  0  0  0  0  0  0  0  0  0  0
   -2.2567    1.1803    0.0000 C   0  0  0  0  0  0  0  0  0  0  0  0
   -0.7724    1.3970    0.0000 R   0  0  0  0  0  0  0  0  0  0  0  0
   -3.1865    2.3573    0.0000 O   0  0  0  0  0  0  0  0  0  0  0  0
  1  2  1  0
  2  3  1  0
  2  4  1  0
  4  5  1  1
  5  6  1  0
  6  7  1  0
  7  8  1  0
  8  9  1  0
  8 10  1  0
 10 11  2  3
 11 12  1  0
 10 13  1  0
 13 14  1  0
 13 15  1  0
 15 16  2  0
 15 17  1  0
  4 18  1  0
 18 19  1  0
 18 20  2  0
M  CHG  2  15   1  17  -1
M  ISO  6   1   1   3   3   9   4  12   6  14   5  19   2
V    1 *
V    3 *
V    9 *
V   12 *
V   14 *
V   19 *
M  END
>  <symbol>  (1022) 
ArgNO2

>  <m_abbr>  (1022) 
ArgNO2

>  <m_name>  (1022) 
ArgNO2

>  <m_type>  (1022) 
aa

>  <m_subtype>  (1022) 
modified

>  <m_Rgroups>  (1022) 
[H],[OH],[H],[H],[H],[H]

>  <m_chem_types>  (1022) 
1:backbone_n,2:backbone_c,3:backbone_n_mod,4:guanidinium,5:guanidinium,6:guanidinium_imine

$$$$

     RDKit          2D

 20 19  0  0  0  0  0  0  0  0999 V2000
   -5.2252    0.7469    0.0000 R   0  0  0  0  0  0  0  0  0  0  0  0
   -4.2954   -0.4302    0.0000 N   0  0  0  0  0  0  0  0  0  0  0  0
   -4.8499   -1.8239    0.0000 R   0  0  0  0  0  0  0  0  0  0  0  0
   -2.8111   -0.2135    0.0000 C   0  0  0  0  0  0  0  0  0  0  0  0
   -1.8814   -1.3905    0.0000 C   0  0  0  0  0  0  0  0  0  0  0  0
   -0.3971   -1.1739    0.0000 C   0  0  0  0  0  0  0  0  0  0  0  0
    0.5327   -2.3509    0.0000 C   0  0  0  0  0  0  0  0  0  0  0  0
    2.0170   -2.1342    0.0000 N   0  0  0  0  0  0  0  0  0  0  0  0
    2.9468   -3.3113    0.0000 R   0  0  0  0  0  0  0  0  0  0  0  0
    2.5714   -0.7405    0.0000 C   0  0  0  0  0  0  0  0  0  0  0  0
    4.0557   -0.5238    0.0000 N   0  0  0  0  0  0  0  0  0  0  0  0
    4.6102    0.8700    0.0000 R   0  0  0  0  0  0  0  0  0  0  0  0
    1.6417    0.4366    0.0000 N   0  0  0  0  0  0  0  0  0  0  0  0
    0.1574    0.2199    0.0000 R   0  0  0  0  0  0  0  0  0  0  0  0
    2.1961    1.8303    0.0000 N   0  0  0  0  0  0  0  0  0  0  0  0
    3.6804    2.0470    0.0000 O   0  0  0  0  0  0  0  0  0  0  0  0
    1.2663    3.0074    0.0000 O   0  0  0  0  0  0  0  0  0  0  0  0
   -2.2567    1.1803    0.0000 C   0  0  0  0  0  0  0  0  0  0  0  0
   -0.7724    1.3970    0.0000 R   0  0  0  0  0  0  0  0  0  0  0  0
   -3.1865    2.3573    0.0000 O   0  0  0  0  0  0  0  0  0  0  0  0
  1  2  1  0
  2  3  1  0
  2  4  1  0
  4  5  1  6
  5  6  1  0
  6  7  1  0
  7  8  1  0
  8  9  1  0
  8 10  1  0
 10 11  2  3
 11 12  1  0
 10 13  1  0
 13 14  1  0
 13 15  1  0
 15 16  2  0
 15 17  1  0
  4 18  1  0
 18 19  1  0
 18 20  2  0
M  CHG  2  15   1  17  -1
M  ISO  6   1   1   3   3   9   4  12   6  14   5  19   2
V    1 *
V    3 *
V    9 *
V   12 *
V   14 *
V   19 *
M  END
>  <symbol>  (1023) 
D_ArgNO2

>  <m_abbr>  (1023) 
D_ArgNO2

>  <m_name>  (1023) 
D_ArgNO2

>  <m_type>  (1023) 
aa

>  <m_subtype>  (1023) 
modified

>  <m_Rgroups>  (1023) 
[H],[OH],[H],[H],[H],[H]

>  <m_chem_types>  (1023) 
1:backbone_n,2:backbone_c,3:backbone_n_mod,4:guanidinium,5:guanidinium,6:guanidinium_imine

$$$$

     RDKit          2D

 16 15  0  0  0  0  0  0  0  0999 V2000
   -5.1587   -0.7795    0.0000 R   0  0  0  0  0  0  0  0  0  0  0  0
   -3.7186   -1.1993    0.0000 N   0  0  0  0  0  0  0  0  0  0  0  0
   -3.3622   -2.6563    0.0000 R   0  0  0  0  0  0  0  0  0  0  0  0
   -2.6350   -0.1621    0.0000 C   0  0  0  0  0  0  0  0  0  0  0  0
   -1.1950   -0.5819    0.0000 C   0  0  0  0  0  0  0  0  0  0  0  0
   -0.1114    0.4553    0.0000 C   0  0  0  0  0  0  0  0  0  0  0  0
    1.3287    0.0355    0.0000 C   0  0  0  0  0  0  0  0  0  0  0  0
    2.4123    1.0727    0.0000 C   0  0  0  0  0  0  0  0  0  0  0  0
    3.8523    0.6529    0.0000 N   0  0  0  0  0  0  0  0  0  0  0  0
    4.9359    1.6901    0.0000 R   0  0  0  0  0  0  0  0  0  0  0  0
    4.2088   -0.8041    0.0000 C   0  0  0  0  0  0  0  0  0  0  0  0
    5.6488   -1.2240    0.0000 R   0  0  0  0  0  0  0  0  0  0  0  0
    3.1252   -1.8414    0.0000 O   0  0  0  0  0  0  0  0  0  0  0  0
   -2.9915    1.2950    0.0000 C   0  0  0  0  0  0  0  0  0  0  0  0
   -1.9079    2.3322    0.0000 R   0  0  0  0  0  0  0  0  0  0  0  0
   -4.4315    1.7148    0.0000 O   0  0  0  0  0  0  0  0  0  0  0  0
  1  2  1  0
  2  3  1  0
  2  4  1  0
  4  5  1  6
  5  6  1  0
  6  7  1  0
  7  8  1  0
  8  9  1  0
  9 10  1  0
  9 11  1  0
 11 12  1  0
 11 13  2  0
  4 14  1  0
 14 15  1  0
 14 16  2  0
M  ISO  5   1   1   3   3  10   4  12   5  15   2
V    1 *
V    3 *
V   10 *
V   12 *
V   15 *
M  END
>  <symbol>  (1024) 
Lys_For

>  <m_abbr>  (1024) 
Lys_For

>  <m_name>  (1024) 
Lys_For

>  <m_type>  (1024) 
aa

>  <m_subtype>  (1024) 
modified

>  <m_Rgroups>  (1024) 
[H],[OH],[H],[H],[H]

>  <m_chem_types>  (1024) 
1:backbone_n,2:backbone_c,3:backbone_n_mod,4:amide_nh,5:formamide_c

$$$$

     RDKit          2D

 20 21  0  0  0  0  0  0  0  0999 V2000
   -3.7929   -2.0671    0.0000 R   0  0  0  0  0  0  0  0  0  0  0  0
   -2.5693   -1.1993    0.0000 N   0  0  0  0  0  0  0  0  0  0  0  0
   -1.2061   -1.8250    0.0000 R   0  0  0  0  0  0  0  0  0  0  0  0
   -2.7091    0.2942    0.0000 C   0  0  0  0  0  0  0  0  0  0  0  0
   -1.4856    1.1619    0.0000 C   0  0  0  0  0  0  0  0  0  0  0  0
   -0.1223    0.5362    0.0000 C   0  0  0  0  0  0  0  0  0  0  0  0
    0.1728   -0.9345    0.0000 C   0  0  0  0  0  0  0  0  0  0  0  0
    1.6627   -1.1083    0.0000 N   0  0  0  0  0  0  0  0  0  0  0  0
    2.3978   -2.4158    0.0000 C   0  0  0  0  0  0  0  0  0  0  0  0
    1.6330   -3.7062    0.0000 R   0  0  0  0  0  0  0  0  0  0  0  0
    3.8977   -2.4329    0.0000 O   0  0  0  0  0  0  0  0  0  0  0  0
    2.2884    0.2550    0.0000 C   0  0  0  0  0  0  0  0  0  0  0  0
    3.7202    0.7022    0.0000 C   0  0  0  0  0  0  0  0  0  0  0  0
    4.0487    2.1658    0.0000 C   0  0  0  0  0  0  0  0  0  0  0  0
    2.9455    3.1821    0.0000 C   0  0  0  0  0  0  0  0  0  0  0  0
    1.5138    2.7349    0.0000 C   0  0  0  0  0  0  0  0  0  0  0  0
    1.1852    1.2714    0.0000 C   0  0  0  0  0  0  0  0  0  0  0  0
   -4.0724    0.9199    0.0000 C   0  0  0  0  0  0  0  0  0  0  0  0
   -5.2959    0.0521    0.0000 R   0  0  0  0  0  0  0  0  0  0  0  0
   -4.2121    2.4133    0.0000 O   0  0  0  0  0  0  0  0  0  0  0  0
  1  2  1  0
  2  3  1  0
  2  4  1  0
  4  5  1  1
  5  6  1  0
  6  7  2  0
  7  8  1  0
  8  9  1  0
  9 10  1  0
  9 11  2  0
  8 12  1  0
 12 13  2  0
 13 14  1  0
 14 15  2  0
 15 16  1  0
 16 17  2  0
  4 18  1  0
 18 19  1  0
 18 20  2  0
 17  6  1  0
 17 12  1  0
M  ISO  4   1   1   3   3  10   4  19   2
V    1 *
V    3 *
V   10 *
V   19 *
M  END
>  <symbol>  (1025) 
D_Trp_For

>  <m_abbr>  (1025) 
D_Trp_For

>  <m_name>  (1025) 
D_Trp_For

>  <m_type>  (1025) 
aa

>  <m_subtype>  (1025) 
modified

>  <m_Rgroups>  (1025) 
[H],[OH],[H],[H]

>  <m_chem_types>  (1025) 
1:backbone_n,2:backbone_c,3:backbone_n_mod,4:formamide_c

$$$$

     RDKit          2D

 14 14  0  0  0  0  0  0  0  0999 V2000
   -4.7080    0.1465    0.0000 R   0  0  0  0  0  0  0  0  0  0  0  0
   -3.2395    0.4521    0.0000 C   0  0  0  0  0  0  0  0  0  0  0  0
   -2.7699    1.8767    0.0000 O   0  0  0  0  0  0  0  0  0  0  0  0
   -2.2405   -0.6669    0.0000 C   0  0  0  0  0  0  0  0  0  0  0  0
   -0.7720   -0.3613    0.0000 C   0  0  0  0  0  0  0  0  0  0  0  0
   -0.4924    1.1124    0.0000 C   0  0  0  0  0  0  0  0  0  0  0  0
    0.7475    1.9568    0.0000 C   0  0  0  0  0  0  0  0  0  0  0  0
    2.2212    1.6771    0.0000 C   0  0  0  0  0  0  0  0  0  0  0  0
    3.0655    0.4373    0.0000 C   0  0  0  0  0  0  0  0  0  0  0  0
    4.5340    0.7429    0.0000 R   0  0  0  0  0  0  0  0  0  0  0  0
    2.7858   -1.0364    0.0000 C   0  0  0  0  0  0  0  0  0  0  0  0
    1.5460   -1.8807    0.0000 C   0  0  0  0  0  0  0  0  0  0  0  0
    0.0723   -1.6011    0.0000 C   0  0  0  0  0  0  0  0  0  0  0  0
   -0.7500   -2.8556    0.0000 R   0  0  0  0  0  0  0  0  0  0  0  0
  1  2  1  0
  2  3  2  0
  2  4  1  0
  4  5  1  0
  5  6  1  0
  6  7  1  0
  7  8  1  0
  8  9  1  0
  9 10  1  0
  9 11  1  0
 11 12  3  0
 12 13  1  0
 13 14  1  0
 13  5  1  0
M  ISO  3   1   2  10   4  14   5
V    1 *
V   10 *
V   14 *
M  END
>  <symbol>  (1026) 
Cyo

>  <m_abbr>  (1026) 
Cyo

>  <m_name>  (1026) 
Cyo

>  <m_type>  (1026) 
aa

>  <m_subtype>  (1026) 
modified

>  <m_Rgroups>  (1026) 
None,[OH],None,[H],[H]

>  <m_chem_types>  (1026) 
2:backbone_c,4:cyclooctyne_c,5:cyclooctyne_c

$$$$

     RDKit          2D

 19 19  0  0  0  0  0  0  0  0999 V2000
   -4.9999   -1.4537    0.0000 R   0  0  0  0  0  0  0  0  0  0  0  0
   -3.5305   -1.1520    0.0000 N   0  0  0  0  0  0  0  0  0  0  0  0
   -2.5345   -2.2736    0.0000 R   0  0  0  0  0  0  0  0  0  0  0  0
   -3.0572    0.2714    0.0000 C   0  0  0  0  0  0  0  0  0  0  0  0
   -1.5878    0.5731    0.0000 C   0  0  0  0  0  0  0  0  0  0  0  0
   -0.5919   -0.5485    0.0000 C   0  0  0  0  0  0  0  0  0  0  0  0
    0.8775   -0.2467    0.0000 C   0  0  0  0  0  0  0  0  0  0  0  0
    1.1610    1.2262    0.0000 C   0  0  0  0  0  0  0  0  0  0  0  0
    2.4030    2.0673    0.0000 C   0  0  0  0  0  0  0  0  0  0  0  0
    3.8760    1.7838    0.0000 C   0  0  0  0  0  0  0  0  0  0  0  0
    4.7170    0.5418    0.0000 C   0  0  0  0  0  0  0  0  0  0  0  0
    6.1864    0.8435    0.0000 R   0  0  0  0  0  0  0  0  0  0  0  0
    4.4335   -0.9312    0.0000 C   0  0  0  0  0  0  0  0  0  0  0  0
    3.1915   -1.7723    0.0000 C   0  0  0  0  0  0  0  0  0  0  0  0
    1.7185   -1.4887    0.0000 C   0  0  0  0  0  0  0  0  0  0  0  0
    0.8929   -2.7411    0.0000 R   0  0  0  0  0  0  0  0  0  0  0  0
   -4.0532    1.3930    0.0000 C   0  0  0  0  0  0  0  0  0  0  0  0
   -5.5225    1.0913    0.0000 R   0  0  0  0  0  0  0  0  0  0  0  0
   -3.5798    2.8164    0.0000 O   0  0  0  0  0  0  0  0  0  0  0  0
  1  2  1  0
  2  3  1  0
  2  4  1  0
  4  5  1  6
  5  6  1  0
  6  7  1  0
  7  8  1  0
  8  9  1  0
  9 10  1  0
 10 11  1  0
 11 12  1  0
 11 13  1  0
 13 14  3  0
 14 15  1  0
 15 16  1  0
  4 17  1  0
 17 18  1  0
 17 19  2  0
 15  7  1  0
M  ISO  5   1   1   3   3  12   4  16   5  18   2
V    1 *
V    3 *
V   12 *
V   16 *
V   18 *
M  END
>  <symbol>  (1027) 
CyoDab

>  <m_abbr>  (1027) 
CyoDab

>  <m_name>  (1027) 
CyoDab

>  <m_type>  (1027) 
aa

>  <m_subtype>  (1027) 
modified

>  <m_Rgroups>  (1027) 
[H],[OH],[H],[H],[H]

>  <m_chem_types>  (1027) 
1:backbone_n,2:backbone_c,3:backbone_n_mod,4:cyclooctyne_c,5:cyclooctyne_c

$$$$

     RDKit          2D

 20 20  0  0  0  0  0  0  0  0999 V2000
   -4.7241    2.3681    0.0000 R   0  0  0  0  0  0  0  0  0  0  0  0
   -3.5278    1.4632    0.0000 N   0  0  0  0  0  0  0  0  0  0  0  0
   -2.1460    2.0468    0.0000 R   0  0  0  0  0  0  0  0  0  0  0  0
   -3.7133   -0.0253    0.0000 C   0  0  0  0  0  0  0  0  0  0  0  0
   -2.5170   -0.9302    0.0000 C   0  0  0  0  0  0  0  0  0  0  0  0
   -1.1352   -0.3466    0.0000 C   0  0  0  0  0  0  0  0  0  0  0  0
    0.0611   -1.2515    0.0000 C   0  0  0  0  0  0  0  0  0  0  0  0
    1.4430   -0.6679    0.0000 C   0  0  0  0  0  0  0  0  0  0  0  0
    1.4326    0.8320    0.0000 C   0  0  0  0  0  0  0  0  0  0  0  0
    2.4859    1.9000    0.0000 C   0  0  0  0  0  0  0  0  0  0  0  0
    3.9859    1.9103    0.0000 C   0  0  0  0  0  0  0  0  0  0  0  0
    5.0538    0.8570    0.0000 C   0  0  0  0  0  0  0  0  0  0  0  0
    6.4357    1.4406    0.0000 R   0  0  0  0  0  0  0  0  0  0  0  0
    5.0642   -0.6429    0.0000 C   0  0  0  0  0  0  0  0  0  0  0  0
    4.0109   -1.7109    0.0000 C   0  0  0  0  0  0  0  0  0  0  0  0
    2.5109   -1.7212    0.0000 C   0  0  0  0  0  0  0  0  0  0  0  0
    1.9465   -3.1110    0.0000 R   0  0  0  0  0  0  0  0  0  0  0  0
   -5.0951   -0.6089    0.0000 C   0  0  0  0  0  0  0  0  0  0  0  0
   -6.2914    0.2960    0.0000 R   0  0  0  0  0  0  0  0  0  0  0  0
   -5.2806   -2.0974    0.0000 O   0  0  0  0  0  0  0  0  0  0  0  0
  1  2  1  0
  2  3  1  0
  2  4  1  0
  4  5  1  1
  5  6  1  0
  6  7  1  0
  7  8  1  0
  8  9  1  0
  9 10  1  0
 10 11  1  0
 11 12  1  0
 12 13  1  0
 12 14  1  0
 14 15  3  0
 15 16  1  0
 16 17  1  0
  4 18  1  0
 18 19  1  0
 18 20  2  0
 16  8  1  0
M  ISO  5   1   1   3   3  13   4  17   5  19   2
V    1 *
V    3 *
V   13 *
V   17 *
V   19 *
M  END
>  <symbol>  (1028) 
CyoOrn

>  <m_abbr>  (1028) 
CyoOrn

>  <m_name>  (1028) 
CyoOrn

>  <m_type>  (1028) 
aa

>  <m_subtype>  (1028) 
modified

>  <m_Rgroups>  (1028) 
[H],[OH],[H],[H],[H]

>  <m_chem_types>  (1028) 
1:backbone_n,2:backbone_c,3:backbone_n_mod,4:cyclooctyne_c,5:cyclooctyne_c

$$$$

     RDKit          2D

 19 18  0  0  0  0  0  0  0  0999 V2000
   -5.9368   -1.0534    0.0000 R   0  0  0  0  0  0  0  0  0  0  0  0
   -4.4620   -1.3273    0.0000 N   0  0  0  0  0  0  0  0  0  0  0  0
   -3.9617   -2.7414    0.0000 R   0  0  0  0  0  0  0  0  0  0  0  0
   -3.4875   -0.1870    0.0000 C   0  0  0  0  0  0  0  0  0  0  0  0
   -2.0127   -0.4608    0.0000 C   0  0  0  0  0  0  0  0  0  0  0  0
   -1.0381    0.6795    0.0000 C   0  0  0  0  0  0  0  0  0  0  0  0
    0.4367    0.4057    0.0000 C   0  0  0  0  0  0  0  0  0  0  0  0
    1.4112    1.5460    0.0000 C   0  0  0  0  0  0  0  0  0  0  0  0
    2.8860    1.2722    0.0000 N   0  0  0  0  0  0  0  0  0  0  0  0
    3.8605    2.4125    0.0000 R   0  0  0  0  0  0  0  0  0  0  0  0
    3.3863   -0.1419    0.0000 C   0  0  0  0  0  0  0  0  0  0  0  0
    2.4117   -1.2822    0.0000 N   0  0  0  0  0  0  0  0  0  0  0  0
    2.9120   -2.6964    0.0000 R   0  0  0  0  0  0  0  0  0  0  0  0
    4.8610   -0.4158    0.0000 N   0  0  0  0  0  0  0  0  0  0  0  0
    5.3613   -1.8299    0.0000 R   0  0  0  0  0  0  0  0  0  0  0  0
    5.8356    0.7245    0.0000 R   0  0  0  0  0  0  0  0  0  0  0  0
   -3.9877    1.2272    0.0000 C   0  0  0  0  0  0  0  0  0  0  0  0
   -3.0132    2.3675    0.0000 R   0  0  0  0  0  0  0  0  0  0  0  0
   -5.4625    1.5010    0.0000 O   0  0  0  0  0  0  0  0  0  0  0  0
  1  2  1  0
  2  3  1  0
  2  4  1  0
  4  5  1  1
  5  6  1  0
  6  7  1  0
  7  8  1  0
  8  9  1  0
  9 10  1  0
  9 11  1  0
 11 12  2  3
 12 13  1  0
 11 14  1  0
 14 15  1  0
 14 16  1  0
  4 17  1  0
 17 18  1  0
 17 19  2  0
M  ISO  7   1   1   3   3  10   5  13   6  15   4  16   7  18   2
V    1 *
V    3 *
V   10 *
V   13 *
V   15 *
V   16 *
V   18 *
M  END
>  <symbol>  (1029) 
D_hArg

>  <m_abbr>  (1029) 
D_hArg

>  <m_name>  (1029) 
D_hArg

>  <m_type>  (1029) 
aa

>  <m_subtype>  (1029) 
modified

>  <m_Rgroups>  (1029) 
[H],[OH],[H],[H],[H],[H],[H]

>  <m_chem_types>  (1029) 
1:backbone_n,2:backbone_c,3:backbone_n_mod,4:amine_primary,5:guanidinium,6:guanidinium_imine,7:amine_secondary

$$$$

     RDKit          2D

 33 38  0  0  0  0  0  0  0  0999 V2000
   -1.4055    0.4757    0.0000 C   0  0  0  0  0  0  0  0  0  0  0  0
   -0.7401   -0.2709    0.0000 C   0  0  0  0  0  0  0  0  0  0  0  0
    0.2391   -0.0677    0.0000 C   0  0  0  0  0  0  0  0  0  0  0  0
    0.5527    0.8817    0.0000 C   0  0  0  0  0  0  0  0  0  0  0  0
   -0.1127    1.6283    0.0000 C   0  0  0  0  0  0  0  0  0  0  0  0
   -1.0917    1.4251    0.0000 C   0  0  0  0  0  0  0  0  0  0  0  0
   -1.7573    2.1717    0.0000 N   0  0  0  0  0  0  0  0  0  0  0  0
   -1.5443    3.1489    0.0000 C   0  0  0  0  0  0  0  0  0  0  0  0
   -0.6289    3.5509    0.0000 O   0  0  0  0  0  0  0  0  0  0  0  0
   -2.4079    3.6529    0.0000 C   0  0  0  0  0  0  0  0  0  0  0  0
   -3.1545    2.9875    0.0000 C   0  0  0  0  0  0  0  0  0  0  0  0
   -2.7523    2.0721    0.0000 C   0  0  0  0  0  0  0  0  0  0  0  0
   -3.2567    1.2087    0.0000 O   0  0  0  0  0  0  0  0  0  0  0  0
    1.5527    0.8769    0.0000 C   0  0  0  0  0  0  0  0  0  0  0  0
    2.1441    1.6831    0.0000 O   0  0  0  0  0  0  0  0  0  0  0  0
    1.8573   -0.0755    0.0000 O   0  0  0  0  0  0  0  0  0  0  0  0
    1.0453   -0.6593    0.0000 C   0  0  0  0  0  0  0  0  0  0  0  0
    1.9089   -1.1635    0.0000 C   0  0  0  0  0  0  0  0  0  0  0  0
    1.9041   -2.1635    0.0000 C   0  0  0  0  0  0  0  0  0  0  0  0
    2.7677   -2.6677    0.0000 C   0  0  0  0  0  0  0  0  0  0  0  0
    3.6361   -2.1719    0.0000 C   0  0  0  0  0  0  0  0  0  0  0  0
    3.6409   -1.1719    0.0000 C   0  0  0  0  0  0  0  0  0  0  0  0
    2.7773   -0.6677    0.0000 C   0  0  0  0  0  0  0  0  0  0  0  0
    4.4997   -2.6761    0.0000 O   0  0  0  0  0  0  0  0  0  0  0  0
    1.0357   -2.6593    0.0000 O   0  0  0  0  0  0  0  0  0  0  0  0
    0.1721   -2.1551    0.0000 C   0  0  0  0  0  0  0  0  0  0  0  0
    0.1769   -1.1551    0.0000 C   0  0  0  0  0  0  0  0  0  0  0  0
   -0.6867   -0.6511    0.0000 C   0  0  0  0  0  0  0  0  0  0  0  0
   -1.5551   -1.1469    0.0000 C   0  0  0  0  0  0  0  0  0  0  0  0
   -1.5599   -2.1469    0.0000 C   0  0  0  0  0  0  0  0  0  0  0  0
   -0.6963   -2.6509    0.0000 C   0  0  0  0  0  0  0  0  0  0  0  0
   -2.4283   -2.6427    0.0000 O   0  0  0  0  0  0  0  0  0  0  0  0
   -4.1315    3.2003    0.0000 R   0  0  0  0  0  0  0  0  0  0  0  0
  1  2  2  0
  2  3  1  0
  3  4  2  0
  4  5  1  0
  5  6  2  0
  6  7  1  0
  7  8  1  0
  8  9  2  0
  8 10  1  0
 10 11  2  0
 11 12  1  0
 12 13  2  0
  4 14  1  0
 14 15  2  0
 14 16  1  0
 16 17  1  0
 17 18  1  0
 18 19  2  0
 19 20  1  0
 20 21  2  0
 21 22  1  0
 22 23  2  0
 21 24  1  0
 19 25  1  0
 25 26  1  0
 26 27  2  0
 27 28  1  0
 28 29  2  0
 29 30  1  0
 30 31  2  0
 30 32  1  0
  6  1  1  0
 17  3  1  0
 12  7  1  0
 27 17  1  0
 23 18  1  0
 31 26  1  0
 11 33  1  0
M  ISO  1  33   4
V   33 *
M  END
>  <m_abbr>  (1030) 
5FM

>  <symbol>  (1030) 
5FM

>  <m_name>  (1030) 
Fluorescein-5-maleimide

>  <m_type>  (1030) 
linker

>  <m_subtype>  (1030) 
dye

>  <m_Rgroups>  (1030) 
None,None,None,[H],None,None

>  <m_chem_types>  (1030) 
4:maleimide_c

$$$$

     RDKit          2D

 37 41  0  0  0  0  0  0  0  0999 V2000
   -4.4433    2.5239    0.0000 C   0  0  0  0  0  0  0  0  0  0  0  0
   -3.5735    3.0171    0.0000 N   0  0  0  0  0  0  0  0  0  0  0  0
   -3.5659    4.0173    0.0000 C   0  0  0  0  0  0  0  0  0  0  0  0
   -2.7101    2.5105    0.0000 C   0  0  0  0  0  0  0  0  0  0  0  0
   -2.7177    1.5107    0.0000 C   0  0  0  0  0  0  0  0  0  0  0  0
   -1.8529    1.0073    0.0000 C   0  0  0  0  0  0  0  0  0  0  0  0
   -0.9827    1.5003    0.0000 C   0  0  0  0  0  0  0  0  0  0  0  0
   -0.1149    0.9951    0.0000 C   0  0  0  0  0  0  0  0  0  0  0  0
    0.7595    1.5029    0.0000 C   0  0  0  0  0  0  0  0  0  0  0  0
    0.7519    2.5009    0.0000 C   0  0  0  0  0  0  0  0  0  0  0  0
    1.6139    3.0029    0.0000 C   0  0  0  0  0  0  0  0  0  0  0  0
    2.4809    2.5121    0.0000 C   0  0  0  0  0  0  0  0  0  0  0  0
    2.4847    1.5163    0.0000 C   0  0  0  0  0  0  0  0  0  0  0  0
    1.6251    1.0103    0.0000 C   0  0  0  0  0  0  0  0  0  0  0  0
    3.3475    3.0037    0.0000 N   0  0  0  0  0  0  0  0  0  0  0  0
    4.2077    2.4909    0.0000 C   0  0  0  0  0  0  0  0  0  0  0  0
    3.3605    4.0011    0.0000 C   0  0  0  0  0  0  0  0  0  0  0  0
   -0.1125    2.9997    0.0000 O   0  0  0  0  0  0  0  0  0  0  0  0
   -0.9795    2.5015    0.0000 C   0  0  0  0  0  0  0  0  0  0  0  0
   -1.8421    3.0075    0.0000 C   0  0  0  0  0  0  0  0  0  0  0  0
   -0.1331   -0.6027    0.0000 C   0  0  0  0  0  0  0  0  0  0  0  0
    0.7257   -1.1153    0.0000 C   0  0  0  0  0  0  0  0  0  0  0  0
    0.7167   -2.1163    0.0000 C   0  0  0  0  0  0  0  0  0  0  0  0
   -0.1557   -2.6051    0.0000 C   0  0  0  0  0  0  0  0  0  0  0  0
   -1.0169   -2.0967    0.0000 C   0  0  0  0  0  0  0  0  0  0  0  0
   -1.0035   -1.0955    0.0000 C   0  0  0  0  0  0  0  0  0  0  0  0
   -0.1611   -3.6069    0.0000 N   0  0  0  0  0  0  0  0  0  0  0  0
    0.6427   -4.2017    0.0000 C   0  0  0  0  0  0  0  0  0  0  0  0
    1.5971   -3.8997    0.0000 O   0  0  0  0  0  0  0  0  0  0  0  0
    0.3275   -5.1503    0.0000 C   0  0  0  0  0  0  0  0  0  0  0  0
   -0.6733   -5.1425    0.0000 C   0  0  0  0  0  0  0  0  0  0  0  0
   -0.9739   -4.1895    0.0000 C   0  0  0  0  0  0  0  0  0  0  0  0
   -1.9235   -3.8727    0.0000 O   0  0  0  0  0  0  0  0  0  0  0  0
    1.5647   -0.6489    0.0000 C   0  0  0  0  0  0  0  0  0  0  0  0
    2.4269   -1.1557    0.0000 O   0  0  0  0  0  0  0  0  0  0  0  0
    1.5675    0.3131    0.0000 O   0  0  0  0  0  0  0  0  0  0  0  0
   -1.2661   -5.9471    0.0000 R   0  0  0  0  0  0  0  0  0  0  0  0
  1  2  1  0
  2  3  1  0
  2  4  1  0
  4  5  2  0
  5  6  1  0
  6  7  1  0
  7  8  2  0
  8  9  1  0
  9 10  2  0
 10 11  1  0
 11 12  2  0
 12 13  1  0
 13 14  2  0
 12 15  1  0
 15 16  1  0
 15 17  1  0
 10 18  1  0
 18 19  1  0
 19 20  2  0
  8 21  1  0
 21 22  2  0
 22 23  1  0
 23 24  2  0
 24 25  1  0
 25 26  2  0
 24 27  1  0
 27 28  1  0
 28 29  2  0
 28 30  1  0
 30 31  2  0
 31 32  1  0
 32 33  2  0
 22 34  1  0
 34 35  2  0
 34 36  1  0
 20  4  1  0
 19  7  1  0
 14  9  1  0
 26 21  1  0
 32 27  1  0
 31 37  1  0
M  ISO  1  37   4
V   37 *
M  END
>  <m_abbr>  (1031) 
TAMRA5

>  <symbol>  (1031) 
TAMRA5

>  <m_name>  (1031) 
5-TAMRA maleimide

>  <m_type>  (1031) 
linker

>  <m_subtype>  (1031) 
dye

>  <m_Rgroups>  (1031) 
None,None,None,[H],None,None

>  <m_chem_types>  (1031) 
4:maleimide_c

$$$$

     RDKit          2D

 46 50  0  0  0  0  0  0  0  0999 V2000
    4.3770   -4.1924    0.0000 C   0  0  0  0  0  0  0  0  0  0  0  0
    5.3564   -3.9852    0.0000 C   0  0  0  0  0  0  0  0  0  0  0  0
    6.3544   -3.9862    0.0000 C   0  0  0  0  0  0  0  0  0  0  0  0
    7.0238   -4.7288    0.0000 C   0  0  0  0  0  0  0  0  0  0  0  0
    8.0026   -4.5226    0.0000 C   0  0  0  0  0  0  0  0  0  0  0  0
    8.3114   -3.5716    0.0000 C   0  0  0  0  0  0  0  0  0  0  0  0
    7.6438   -2.8272    0.0000 C   0  0  0  0  0  0  0  0  0  0  0  0
    6.6658   -3.0356    0.0000 C   0  0  0  0  0  0  0  0  0  0  0  0
    5.8566   -2.4478    0.0000 N   0  0  0  0  0  0  0  0  0  0  0  0
    5.0464   -3.0338    0.0000 C   0  0  0  0  0  0  0  0  0  0  0  0
    4.0966   -2.7242    0.0000 C   0  0  0  0  0  0  0  0  0  0  0  0
    3.8900   -1.7458    0.0000 C   0  0  0  0  0  0  0  0  0  0  0  0
    2.9394   -1.4356    0.0000 C   0  0  0  0  0  0  0  0  0  0  0  0
    2.7328   -0.4572    0.0000 C   0  0  0  0  0  0  0  0  0  0  0  0
    1.7824   -0.1474    0.0000 C   0  0  0  0  0  0  0  0  0  0  0  0
    1.5756    0.8316    0.0000 C   0  0  0  0  0  0  0  0  0  0  0  0
    2.2440    1.5736    0.0000 C   0  0  0  0  0  0  0  0  0  0  0  0
    1.7448    2.4410    0.0000 C   0  0  0  0  0  0  0  0  0  0  0  0
    2.0532    3.3902    0.0000 C   0  0  0  0  0  0  0  0  0  0  0  0
    1.3852    4.1356    0.0000 C   0  0  0  0  0  0  0  0  0  0  0  0
    0.4074    3.9262    0.0000 C   0  0  0  0  0  0  0  0  0  0  0  0
    0.0964    2.9764    0.0000 C   0  0  0  0  0  0  0  0  0  0  0  0
    0.7670    2.2318    0.0000 C   0  0  0  0  0  0  0  0  0  0  0  0
    0.6606    1.2374    0.0000 N   0  0  0  0  0  0  0  0  0  0  0  0
   -0.2048    0.7384    0.0000 C   0  0  0  0  0  0  0  0  0  0  0  0
   -1.0706    1.2394    0.0000 C   0  0  0  0  0  0  0  0  0  0  0  0
   -1.9374    0.7404    0.0000 C   0  0  0  0  0  0  0  0  0  0  0  0
   -2.8030    1.2414    0.0000 C   0  0  0  0  0  0  0  0  0  0  0  0
   -3.6698    0.7424    0.0000 C   0  0  0  0  0  0  0  0  0  0  0  0
   -4.5354    1.2432    0.0000 C   0  0  0  0  0  0  0  0  0  0  0  0
   -4.5346    2.2432    0.0000 O   0  0  0  0  0  0  0  0  0  0  0  0
   -5.4020    0.7438    0.0000 N   0  0  0  0  0  0  0  0  0  0  0  0
   -6.2676    1.2446    0.0000 C   0  0  0  0  0  0  0  0  0  0  0  0
   -7.1342    0.7452    0.0000 C   0  0  0  0  0  0  0  0  0  0  0  0
   -7.9990    1.2454    0.0000 N   0  0  0  0  0  0  0  0  0  0  0  0
   -8.1038    2.2398    0.0000 C   0  0  0  0  0  0  0  0  0  0  0  0
   -7.3592    2.9090    0.0000 O   0  0  0  0  0  0  0  0  0  0  0  0
   -9.0810    2.4494    0.0000 C   0  0  0  0  0  0  0  0  0  0  0  0
   -9.5822    1.5830    0.0000 C   0  0  0  0  0  0  0  0  0  0  0  0
   -8.9134    0.8404    0.0000 C   0  0  0  0  0  0  0  0  0  0  0  0
   -9.1222   -0.1386    0.0000 O   0  0  0  0  0  0  0  0  0  0  0  0
    2.9138    0.8312    0.0000 C   0  0  0  0  0  0  0  0  0  0  0  0
    3.0536    2.1622    0.0000 C   0  0  0  0  0  0  0  0  0  0  0  0
    5.8572   -1.4468    0.0000 C   0  0  0  0  0  0  0  0  0  0  0  0
    5.4590   -4.9800    0.0000 C   0  0  0  0  0  0  0  0  0  0  0  0
  -10.5762    1.4806    0.0000 R   0  0  0  0  0  0  0  0  0  0  0  0
  1  2  1  0
  2  3  1  0
  3  4  2  0
  4  5  1  0
  5  6  2  0
  6  7  1  0
  7  8  2  0
  8  9  1  0
  9 10  2  0
 10 11  1  0
 11 12  2  3
 12 13  1  0
 13 14  2  3
 14 15  1  0
 15 16  2  3
 16 17  1  0
 17 18  1  0
 18 19  2  0
 19 20  1  0
 20 21  2  0
 21 22  1  0
 22 23  2  0
 23 24  1  0
 24 25  1  0
 25 26  1  0
 26 27  1  0
 27 28  1  0
 28 29  1  0
 29 30  1  0
 30 31  2  0
 30 32  1  0
 32 33  1  0
 33 34  1  0
 34 35  1  0
 35 36  1  0
 36 37  2  0
 36 38  1  0
 38 39  2  0
 39 40  1  0
 40 41  2  0
 17 42  1  0
 17 43  1  0
  9 44  1  0
  2 45  1  0
 10  2  1  0
  8  3  1  0
 24 16  1  0
 23 18  1  0
 40 35  1  0
 39 46  1  0
M  CHG  1   9   1
M  ISO  1  46   4
V   46 *
M  END
>  <m_abbr>  (1032) 
Cy5Mal

>  <symbol>  (1032) 
Cy5Mal

>  <m_name>  (1032) 
Cyanine5 maleimide

>  <m_type>  (1032) 
linker

>  <m_subtype>  (1032) 
dye

>  <m_Rgroups>  (1032) 
None,None,None,[H],None,None

>  <m_chem_types>  (1032) 
4:maleimide_c

$$$$

     RDKit          2D

 49 53  0  0  0  0  0  0  0  0999 V2000
   -0.5698    0.1566    0.0000 C   0  0  0  0  0  0  0  0  0  0  0  0
    0.3050   -0.3290    0.0000 C   0  0  0  0  0  0  0  0  0  0  0  0
    1.1608    0.1902    0.0000 C   0  0  0  0  0  0  0  0  0  0  0  0
    1.1418    1.1888    0.0000 C   0  0  0  0  0  0  0  0  0  0  0  0
    0.2670    1.6702    0.0000 C   0  0  0  0  0  0  0  0  0  0  0  0
   -0.5898    1.1566    0.0000 C   0  0  0  0  0  0  0  0  0  0  0  0
   -1.4540    1.6570    0.0000 C   0  0  0  0  0  0  0  0  0  0  0  0
   -1.4492    2.6620    0.0000 O   0  0  0  0  0  0  0  0  0  0  0  0
   -2.3170    1.1644    0.0000 N   0  0  0  0  0  0  0  0  0  0  0  0
   -3.1794    1.6678    0.0000 C   0  0  0  0  0  0  0  0  0  0  0  0
   -4.0450    1.1692    0.0000 C   0  0  0  0  0  0  0  0  0  0  0  0
   -4.9106    1.6686    0.0000 C   0  0  0  0  0  0  0  0  0  0  0  0
   -5.7762    1.1676    0.0000 C   0  0  0  0  0  0  0  0  0  0  0  0
   -6.6426    1.6666    0.0000 C   0  0  0  0  0  0  0  0  0  0  0  0
   -7.5090    1.1652    0.0000 N   0  0  0  0  0  0  0  0  0  0  0  0
   -7.6104    0.1708    0.0000 C   0  0  0  0  0  0  0  0  0  0  0  0
   -6.8676   -0.4972    0.0000 O   0  0  0  0  0  0  0  0  0  0  0  0
   -8.5900   -0.0360    0.0000 C   0  0  0  0  0  0  0  0  0  0  0  0
   -9.0892    0.8268    0.0000 C   0  0  0  0  0  0  0  0  0  0  0  0
   -8.4218    1.5732    0.0000 C   0  0  0  0  0  0  0  0  0  0  0  0
   -8.6306    2.5500    0.0000 O   0  0  0  0  0  0  0  0  0  0  0  0
    1.7534    1.5064    0.0000 C   0  0  0  0  0  0  0  0  0  0  0  0
    1.8810    2.4744    0.0000 O   0  0  0  0  0  0  0  0  0  0  0  0
    2.3262    0.9230    0.0000 O   0  0  0  0  0  0  0  0  0  0  0  0
    2.1394   -0.2530    0.0000 C   0  0  0  0  0  0  0  0  0  0  0  0
    2.1302   -1.2562    0.0000 C   0  0  0  0  0  0  0  0  0  0  0  0
    1.2528   -1.7452    0.0000 C   0  0  0  0  0  0  0  0  0  0  0  0
    1.2382   -2.7458    0.0000 C   0  0  0  0  0  0  0  0  0  0  0  0
    2.0968   -3.2584    0.0000 C   0  0  0  0  0  0  0  0  0  0  0  0
    2.0800   -4.2582    0.0000 N   0  0  0  0  0  0  0  0  0  0  0  0
    2.9730   -2.7666    0.0000 C   0  0  0  0  0  0  0  0  0  0  0  0
    2.9894   -1.7698    0.0000 C   0  0  0  0  0  0  0  0  0  0  0  0
    3.8678   -1.2708    0.0000 O   0  0  0  0  0  0  0  0  0  0  0  0
    3.8792   -0.2596    0.0000 C   0  0  0  0  0  0  0  0  0  0  0  0
    3.0172    0.2436    0.0000 C   0  0  0  0  0  0  0  0  0  0  0  0
    3.0268    1.2490    0.0000 C   0  0  0  0  0  0  0  0  0  0  0  0
    3.8960    1.7472    0.0000 C   0  0  0  0  0  0  0  0  0  0  0  0
    4.7566    1.2390    0.0000 C   0  0  0  0  0  0  0  0  0  0  0  0
    4.7502    0.2356    0.0000 C   0  0  0  0  0  0  0  0  0  0  0  0
    5.5760   -0.2716    0.0000 S   0  0  0  0  0  0  0  0  0  0  0  0
    5.0372   -1.1172    0.0000 O   0  0  0  0  0  0  0  0  0  0  0  0
    6.1004    0.5770    0.0000 O   0  0  0  0  0  0  0  0  0  0  0  0
    6.4138   -0.8026    0.0000 O   0  0  0  0  0  0  0  0  0  0  0  0
    5.6244    1.7348    0.0000 N   0  0  0  0  0  0  0  0  0  0  0  0
    3.8074   -3.2894    0.0000 S   0  0  0  0  0  0  0  0  0  0  0  0
    4.3354   -2.4468    0.0000 O   0  0  0  0  0  0  0  0  0  0  0  0
    3.2672   -4.1376    0.0000 O   0  0  0  0  0  0  0  0  0  0  0  0
    4.6474   -3.8240    0.0000 O   0  0  0  0  0  0  0  0  0  0  0  0
  -10.0846    0.9310    0.0000 R   0  0  0  0  0  0  0  0  0  0  0  0
  1  2  2  0
  2  3  1  0
  3  4  2  0
  4  5  1  0
  5  6  2  0
  6  7  1  0
  7  8  2  0
  7  9  1  0
  9 10  1  0
 10 11  1  0
 11 12  1  0
 12 13  1  0
 13 14  1  0
 14 15  1  0
 15 16  1  0
 16 17  2  0
 16 18  1  0
 18 19  2  0
 19 20  1  0
 20 21  2  0
  4 22  1  0
 22 23  2  0
 22 24  1  0
  3 25  1  0
 25 26  2  0
 26 27  1  0
 27 28  2  0
 28 29  1  0
 29 30  2  0
 29 31  1  0
 31 32  2  0
 32 33  1  0
 33 34  1  0
 34 35  2  0
 35 36  1  0
 36 37  2  0
 37 38  1  0
 38 39  2  0
 39 40  1  0
 40 41  2  0
 40 42  2  0
 40 43  1  0
 38 44  1  0
 31 45  1  0
 45 46  2  0
 45 47  2  0
 45 48  1  0
  6  1  1  0
 20 15  1  0
 35 25  1  0
 32 26  1  0
 39 34  1  0
 19 49  1  0
M  CHG  2  30   1  43  -1
M  ISO  1  49   4
V   49 *
M  END
>  <m_abbr>  (1033) 
AZDye488

>  <symbol>  (1033) 
AZDye488

>  <m_name>  (1033) 
AZDye 488 maleimide

>  <m_type>  (1033) 
linker

>  <m_subtype>  (1033) 
dye

>  <m_Rgroups>  (1033) 
None,None,None,[H],None,None

>  <m_chem_types>  (1033) 
4:maleimide_c

$$$$

     RDKit          2D

 44 48  0  0  0  0  0  0  0  0999 V2000
    3.7165   -3.3570    0.0000 C   0  0  0  0  0  0  0  0  0  0  0  0
    4.6959   -3.1498    0.0000 C   0  0  0  0  0  0  0  0  0  0  0  0
    5.6937   -3.1510    0.0000 C   0  0  0  0  0  0  0  0  0  0  0  0
    6.3633   -3.8933    0.0000 C   0  0  0  0  0  0  0  0  0  0  0  0
    7.3421   -3.6873    0.0000 C   0  0  0  0  0  0  0  0  0  0  0  0
    7.6509   -2.7361    0.0000 C   0  0  0  0  0  0  0  0  0  0  0  0
    6.9833   -1.9920    0.0000 C   0  0  0  0  0  0  0  0  0  0  0  0
    6.0053   -2.2001    0.0000 C   0  0  0  0  0  0  0  0  0  0  0  0
    5.1961   -1.6124    0.0000 N   0  0  0  0  0  0  0  0  0  0  0  0
    4.3859   -2.1984    0.0000 C   0  0  0  0  0  0  0  0  0  0  0  0
    3.4365   -1.8890    0.0000 C   0  0  0  0  0  0  0  0  0  0  0  0
    3.2299   -0.9104    0.0000 C   0  0  0  0  0  0  0  0  0  0  0  0
    2.2795   -0.6004    0.0000 C   0  0  0  0  0  0  0  0  0  0  0  0
    2.0729    0.3786    0.0000 C   0  0  0  0  0  0  0  0  0  0  0  0
    2.7411    1.1207    0.0000 C   0  0  0  0  0  0  0  0  0  0  0  0
    2.2421    1.9880    0.0000 C   0  0  0  0  0  0  0  0  0  0  0  0
    2.5505    2.9373    0.0000 C   0  0  0  0  0  0  0  0  0  0  0  0
    1.8825    3.6827    0.0000 C   0  0  0  0  0  0  0  0  0  0  0  0
    0.9047    3.4733    0.0000 C   0  0  0  0  0  0  0  0  0  0  0  0
    0.5937    2.5235    0.0000 C   0  0  0  0  0  0  0  0  0  0  0  0
    1.2643    1.7788    0.0000 C   0  0  0  0  0  0  0  0  0  0  0  0
    1.1579    0.7844    0.0000 N   0  0  0  0  0  0  0  0  0  0  0  0
    0.2925    0.2854    0.0000 C   0  0  0  0  0  0  0  0  0  0  0  0
   -0.5733    0.7864    0.0000 C   0  0  0  0  0  0  0  0  0  0  0  0
   -1.4401    0.2874    0.0000 C   0  0  0  0  0  0  0  0  0  0  0  0
   -2.3057    0.7885    0.0000 C   0  0  0  0  0  0  0  0  0  0  0  0
   -3.1725    0.2894    0.0000 C   0  0  0  0  0  0  0  0  0  0  0  0
   -4.0381    0.7903    0.0000 C   0  0  0  0  0  0  0  0  0  0  0  0
   -4.0373    1.7902    0.0000 O   0  0  0  0  0  0  0  0  0  0  0  0
   -4.9047    0.2908    0.0000 N   0  0  0  0  0  0  0  0  0  0  0  0
   -5.7705    0.7917    0.0000 C   0  0  0  0  0  0  0  0  0  0  0  0
   -6.6369    0.2922    0.0000 C   0  0  0  0  0  0  0  0  0  0  0  0
   -7.5019    0.7924    0.0000 N   0  0  0  0  0  0  0  0  0  0  0  0
   -7.6065    1.7868    0.0000 C   0  0  0  0  0  0  0  0  0  0  0  0
   -6.8621    2.4560    0.0000 O   0  0  0  0  0  0  0  0  0  0  0  0
   -8.5837    1.9965    0.0000 C   0  0  0  0  0  0  0  0  0  0  0  0
   -9.0849    1.1303    0.0000 C   0  0  0  0  0  0  0  0  0  0  0  0
   -8.4161    0.3874    0.0000 C   0  0  0  0  0  0  0  0  0  0  0  0
   -8.6249   -0.5915    0.0000 O   0  0  0  0  0  0  0  0  0  0  0  0
    3.4111    0.3782    0.0000 C   0  0  0  0  0  0  0  0  0  0  0  0
    3.5509    1.7093    0.0000 C   0  0  0  0  0  0  0  0  0  0  0  0
    5.1967   -0.6114    0.0000 C   0  0  0  0  0  0  0  0  0  0  0  0
    4.7985   -4.1445    0.0000 C   0  0  0  0  0  0  0  0  0  0  0  0
  -10.0789    1.0276    0.0000 R   0  0  0  0  0  0  0  0  0  0  0  0
  1  2  1  0
  2  3  1  0
  3  4  2  0
  4  5  1  0
  5  6  2  0
  6  7  1  0
  7  8  2  0
  8  9  1  0
  9 10  2  0
 10 11  1  0
 11 12  2  3
 12 13  1  0
 13 14  2  3
 14 15  1  0
 15 16  1  0
 16 17  2  0
 17 18  1  0
 18 19  2  0
 19 20  1  0
 20 21  2  0
 21 22  1  0
 22 23  1  0
 23 24  1  0
 24 25  1  0
 25 26  1  0
 26 27  1  0
 27 28  1  0
 28 29  2  0
 28 30  1  0
 30 31  1  0
 31 32  1  0
 32 33  1  0
 33 34  1  0
 34 35  2  0
 34 36  1  0
 36 37  2  0
 37 38  1  0
 38 39  2  0
 15 40  1  0
 15 41  1  0
  9 42  1  0
  2 43  1  0
 10  2  1  0
  8  3  1  0
 22 14  1  0
 21 16  1  0
 38 33  1  0
 37 44  1  0
M  CHG  1   9   1
M  ISO  1  44   4
V   44 *
M  END
>  <m_abbr>  (1034) 
AZDye550

>  <symbol>  (1034) 
AZDye550

>  <m_name>  (1034) 
AZDye 550 maleimide

>  <m_type>  (1034) 
linker

>  <m_subtype>  (1034) 
dye

>  <m_Rgroups>  (1034) 
None,None,None,[H],None,None

>  <m_chem_types>  (1034) 
4:maleimide_c

$$$$

     RDKit          2D

 65 69  0  0  0  0  0  0  0  0999 V2000
   -2.1160    0.8723    0.0000 C   0  0  0  0  0  0  0  0  0  0  0  0
   -2.9802    1.3741    0.0000 C   0  0  0  0  0  0  0  0  0  0  0  0
   -3.7230    2.0439    0.0000 C   0  0  0  0  0  0  0  0  0  0  0  0
   -4.5906    1.5473    0.0000 C   0  0  0  0  0  0  0  0  0  0  0  0
   -5.4534    2.0477    0.0000 C   0  0  0  0  0  0  0  0  0  0  0  0
   -5.4540    3.0491    0.0000 C   0  0  0  0  0  0  0  0  0  0  0  0
   -4.5864    3.5459    0.0000 C   0  0  0  0  0  0  0  0  0  0  0  0
   -3.7208    3.0461    0.0000 C   0  0  0  0  0  0  0  0  0  0  0  0
   -4.5842    4.5469    0.0000 S   0  0  0  0  0  0  0  0  0  0  0  0
   -5.5842    4.5493    0.0000 O   0  0  0  0  0  0  0  0  0  0  0  0
   -3.5842    4.5445    0.0000 O   0  0  0  0  0  0  0  0  0  0  0  0
   -4.5818    5.5469    0.0000 O   0  0  0  0  0  0  0  0  0  0  0  0
   -4.3834    0.5679    0.0000 N   0  0  0  0  0  0  0  0  0  0  0  0
   -3.3896    0.4615    0.0000 C   0  0  0  0  0  0  0  0  0  0  0  0
   -2.8904   -0.4055    0.0000 C   0  0  0  0  0  0  0  0  0  0  0  0
   -1.8908   -0.4075    0.0000 C   0  0  0  0  0  0  0  0  0  0  0  0
   -1.3928   -1.2743    0.0000 C   0  0  0  0  0  0  0  0  0  0  0  0
   -0.3932   -1.2765    0.0000 C   0  0  0  0  0  0  0  0  0  0  0  0
    0.1048   -2.1435    0.0000 C   0  0  0  0  0  0  0  0  0  0  0  0
    1.1052   -2.1461    0.0000 C   0  0  0  0  0  0  0  0  0  0  0  0
    1.6934   -1.3369    0.0000 C   0  0  0  0  0  0  0  0  0  0  0  0
    2.6440   -1.6495    0.0000 C   0  0  0  0  0  0  0  0  0  0  0  0
    2.6450   -2.6493    0.0000 C   0  0  0  0  0  0  0  0  0  0  0  0
    1.6910   -2.9555    0.0000 N   0  0  0  0  0  0  0  0  0  0  0  0
    1.3810   -3.9067    0.0000 C   0  0  0  0  0  0  0  0  0  0  0  0
    2.0486   -4.6507    0.0000 C   0  0  0  0  0  0  0  0  0  0  0  0
    1.7380   -5.6011    0.0000 C   0  0  0  0  0  0  0  0  0  0  0  0
    2.4056   -6.3453    0.0000 S   0  0  0  0  0  0  0  0  0  0  0  0
    3.1500   -5.6773    0.0000 O   0  0  0  0  0  0  0  0  0  0  0  0
    1.6614   -7.0131    0.0000 O   0  0  0  0  0  0  0  0  0  0  0  0
    3.0734   -7.0895    0.0000 O   0  0  0  0  0  0  0  0  0  0  0  0
    3.5090   -3.1483    0.0000 C   0  0  0  0  0  0  0  0  0  0  0  0
    4.3774   -2.6499    0.0000 C   0  0  0  0  0  0  0  0  0  0  0  0
    4.3764   -1.6501    0.0000 C   0  0  0  0  0  0  0  0  0  0  0  0
    3.5118   -1.1485    0.0000 C   0  0  0  0  0  0  0  0  0  0  0  0
    5.2440   -1.1513    0.0000 S   0  0  0  0  0  0  0  0  0  0  0  0
    4.7460   -0.2843    0.0000 O   0  0  0  0  0  0  0  0  0  0  0  0
    5.7420   -2.0185    0.0000 O   0  0  0  0  0  0  0  0  0  0  0  0
    6.1112   -0.6533    0.0000 O   0  0  0  0  0  0  0  0  0  0  0  0
    2.1022   -0.4251    0.0000 C   0  0  0  0  0  0  0  0  0  0  0  0
    0.8288   -0.8359    0.0000 C   0  0  0  0  0  0  0  0  0  0  0  0
    0.8314    0.1641    0.0000 C   0  0  0  0  0  0  0  0  0  0  0  0
   -0.0334    0.6661    0.0000 C   0  0  0  0  0  0  0  0  0  0  0  0
   -0.0310    1.6661    0.0000 C   0  0  0  0  0  0  0  0  0  0  0  0
    0.8360    2.1641    0.0000 C   0  0  0  0  0  0  0  0  0  0  0  0
    0.8382    3.1641    0.0000 O   0  0  0  0  0  0  0  0  0  0  0  0
    1.7008    1.6623    0.0000 N   0  0  0  0  0  0  0  0  0  0  0  0
    2.5678    2.1605    0.0000 C   0  0  0  0  0  0  0  0  0  0  0  0
    3.4326    1.6587    0.0000 C   0  0  0  0  0  0  0  0  0  0  0  0
    4.3004    2.1573    0.0000 N   0  0  0  0  0  0  0  0  0  0  0  0
    4.4062    3.1513    0.0000 C   0  0  0  0  0  0  0  0  0  0  0  0
    3.6654    3.8215    0.0000 O   0  0  0  0  0  0  0  0  0  0  0  0
    5.3852    3.3565    0.0000 C   0  0  0  0  0  0  0  0  0  0  0  0
    5.8828    2.4909    0.0000 C   0  0  0  0  0  0  0  0  0  0  0  0
    5.2124    1.7483    0.0000 C   0  0  0  0  0  0  0  0  0  0  0  0
    5.4186    0.7709    0.0000 O   0  0  0  0  0  0  0  0  0  0  0  0
   -5.0550   -0.1737    0.0000 C   0  0  0  0  0  0  0  0  0  0  0  0
   -6.0324    0.0363    0.0000 C   0  0  0  0  0  0  0  0  0  0  0  0
   -6.7028   -0.7053    0.0000 C   0  0  0  0  0  0  0  0  0  0  0  0
   -7.6804   -0.4955    0.0000 S   0  0  0  0  0  0  0  0  0  0  0  0
   -7.4704    0.4823    0.0000 O   0  0  0  0  0  0  0  0  0  0  0  0
   -7.8902   -1.4731    0.0000 O   0  0  0  0  0  0  0  0  0  0  0  0
   -8.6580   -0.2855    0.0000 O   0  0  0  0  0  0  0  0  0  0  0  0
   -2.3918    2.1815    0.0000 C   0  0  0  0  0  0  0  0  0  0  0  0
    6.8776    2.3831    0.0000 R   0  0  0  0  0  0  0  0  0  0  0  0
  1  2  1  0
  2  3  1  0
  3  4  2  0
  4  5  1  0
  5  6  2  0
  6  7  1  0
  7  8  2  0
  7  9  1  0
  9 10  2  0
  9 11  2  0
  9 12  1  0
  4 13  1  0
 13 14  2  0
 14 15  1  0
 15 16  2  3
 16 17  1  0
 17 18  2  3
 18 19  1  0
 19 20  2  3
 20 21  1  0
 21 22  1  0
 22 23  2  0
 23 24  1  0
 24 25  1  0
 25 26  1  0
 26 27  1  0
 27 28  1  0
 28 29  2  0
 28 30  2  0
 28 31  1  0
 23 32  1  0
 32 33  2  0
 33 34  1  0
 34 35  2  0
 34 36  1  0
 36 37  2  0
 36 38  2  0
 36 39  1  0
 21 40  1  0
 21 41  1  0
 41 42  1  0
 42 43  1  0
 43 44  1  0
 44 45  1  0
 45 46  2  0
 45 47  1  0
 47 48  1  0
 48 49  1  0
 49 50  1  0
 50 51  1  0
 51 52  2  0
 51 53  1  0
 53 54  2  0
 54 55  1  0
 55 56  2  0
 13 57  1  0
 57 58  1  0
 58 59  1  0
 59 60  1  0
 60 61  2  0
 60 62  2  0
 60 63  1  0
  2 64  1  0
 14  2  1  0
  8  3  1  0
 24 20  1  0
 35 22  1  0
 55 50  1  0
 54 65  1  0
M  CHG  2  13   1  31  -1
M  ISO  1  65   4
V   65 *
M  END
>  <m_abbr>  (1035) 
AZDye647

>  <symbol>  (1035) 
AZDye647

>  <m_name>  (1035) 
AZDye 647 maleimide

>  <m_type>  (1035) 
linker

>  <m_subtype>  (1035) 
dye

>  <m_Rgroups>  (1035) 
None,None,None,[H],None,None

>  <m_chem_types>  (1035) 
4:maleimide_c

$$$$

     RDKit          2D

 11 10  0  0  0  0  0  0  0  0999 V2000
   -3.0813    0.0866    0.0000 R   0  0  0  0  0  0  0  0  0  0  0  0
   -1.8784   -0.8095    0.0000 N   0  0  0  0  0  0  0  0  0  0  0  0
   -2.0531   -2.2993    0.0000 R   0  0  0  0  0  0  0  0  0  0  0  0
   -0.5009   -0.2159    0.0000 C   0  0  0  0  0  0  0  0  0  0  0  0
    0.7020   -1.1120    0.0000 C   0  0  0  0  0  0  0  0  0  0  0  0
    2.0795   -0.5184    0.0000 C   0  0  0  0  0  0  0  0  0  0  0  0
    3.2824   -1.4145    0.0000 R   0  0  0  0  0  0  0  0  0  0  0  0
    2.2541    0.9714    0.0000 O   0  0  0  0  0  0  0  0  0  0  0  0
   -0.3263    1.2739    0.0000 C   0  0  0  0  0  0  0  0  0  0  0  0
    1.0513    1.8676    0.0000 R   0  0  0  0  0  0  0  0  0  0  0  0
   -1.5291    2.1701    0.0000 O   0  0  0  0  0  0  0  0  0  0  0  0
  1  2  1  0
  2  3  1  0
  2  4  1  0
  4  5  1  6
  5  6  1  0
  6  7  1  0
  6  8  2  0
  4  9  1  0
  9 10  1  0
  9 11  2  0
M  ISO  4   1   1   3   3   7   2  10   4
V    1 *
V    3 *
V    7 *
V   10 *
M  END
>  <symbol>  (1036) 
D_b

>  <m_abbr>  (1036) 
D_b

>  <m_name>  (1036) 
L-beta-Aspartate backbone

>  <m_type>  (1036) 
aa

>  <m_subtype>  (1036) 
modified

>  <m_Rgroups>  (1036) 
[H],[OH],[H],[OH]

>  <m_chem_types>  (1036) 
1:backbone_n,2:backbone_c,3:backbone_n_mod,4:carboxyl

$$$$

     RDKit          2D

 11 10  0  0  0  0  0  0  0  0999 V2000
   -3.0813    0.0866    0.0000 R   0  0  0  0  0  0  0  0  0  0  0  0
   -1.8784   -0.8095    0.0000 N   0  0  0  0  0  0  0  0  0  0  0  0
   -2.0531   -2.2993    0.0000 R   0  0  0  0  0  0  0  0  0  0  0  0
   -0.5009   -0.2159    0.0000 C   0  0  0  0  0  0  0  0  0  0  0  0
    0.7020   -1.1120    0.0000 C   0  0  0  0  0  0  0  0  0  0  0  0
    2.0795   -0.5184    0.0000 C   0  0  0  0  0  0  0  0  0  0  0  0
    3.2824   -1.4145    0.0000 R   0  0  0  0  0  0  0  0  0  0  0  0
    2.2541    0.9714    0.0000 O   0  0  0  0  0  0  0  0  0  0  0  0
   -0.3263    1.2739    0.0000 C   0  0  0  0  0  0  0  0  0  0  0  0
    1.0513    1.8676    0.0000 R   0  0  0  0  0  0  0  0  0  0  0  0
   -1.5291    2.1701    0.0000 O   0  0  0  0  0  0  0  0  0  0  0  0
  1  2  1  0
  2  3  1  0
  2  4  1  0
  4  5  1  1
  5  6  1  0
  6  7  1  0
  6  8  2  0
  4  9  1  0
  9 10  1  0
  9 11  2  0
M  ISO  4   1   1   3   3   7   2  10   4
V    1 *
V    3 *
V    7 *
V   10 *
M  END
>  <symbol>  (1037) 
DAsp_b

>  <m_abbr>  (1037) 
DAsp_b

>  <m_name>  (1037) 
D-beta-Aspartate backbone

>  <m_type>  (1037) 
aa

>  <m_subtype>  (1037) 
modified

>  <m_Rgroups>  (1037) 
[H],[OH],[H],[OH]

>  <m_chem_types>  (1037) 
1:backbone_n,2:backbone_c,3:backbone_n_mod,4:carboxyl

$$$$

     RDKit          2D

 15 14  0  0  0  0  0  0  0  0999 V2000
   -3.8971   -0.3290    0.0000 R   0  0  0  0  0  0  0  0  0  0  0  0
   -2.5981   -1.0790    0.0000 N   0  0  0  0  0  0  0  0  0  0  0  0
   -2.5981   -2.5790    0.0000 R   0  0  0  0  0  0  0  0  0  0  0  0
   -1.2990   -0.3290    0.0000 C   0  0  0  0  0  0  0  0  0  0  0  0
   -0.0000   -1.0790    0.0000 C   0  0  0  0  0  0  0  0  0  0  0  0
    1.2990   -0.3290    0.0000 C   0  0  0  0  0  0  0  0  0  0  0  0
    2.5981   -1.0790    0.0000 C   0  0  0  0  0  0  0  0  0  0  0  0
    3.8971   -0.3290    0.0000 R   0  0  0  0  0  0  0  0  0  0  0  0
    2.5981   -2.5790    0.0000 O   0  0  0  0  0  0  0  0  0  0  0  0
    1.2990    1.1710    0.0000 C   0  0  0  0  0  0  0  0  0  0  0  0
    2.5981    1.9210    0.0000 R   0  0  0  0  0  0  0  0  0  0  0  0
    0.5131    1.7633    0.0000 O   0  0  0  0  0  0  0  0  0  0  0  0
   -1.2990    1.1710    0.0000 C   0  0  0  0  0  0  0  0  0  0  0  0
   -0.5131    1.7633    0.0000 R   0  0  0  0  0  0  0  0  0  0  0  0
   -2.5981    1.9210    0.0000 O   0  0  0  0  0  0  0  0  0  0  0  0
  1  2  1  0
  2  3  1  0
  2  4  1  0
  4  5  1  6
  5  6  1  0
  6  7  1  0
  7  8  1  0
  7  9  2  0
  6 10  1  0
 10 11  1  0
 10 12  2  0
  4 13  1  0
 13 14  1  0
 13 15  2  0
M  ISO  5   1   1   3   3   8   4  11   5  14   2
V    1 *
V    3 *
V    8 *
V   11 *
V   14 *
M  END
>  <symbol>  (1038) 
Gla_a

>  <m_abbr>  (1038) 
Gla_a

>  <m_name>  (1038) 
gamma-Carboxyglutamic acid alpha-backbone

>  <m_type>  (1038) 
aa

>  <m_subtype>  (1038) 
modified

>  <m_Rgroups>  (1038) 
[H],[OH],[H],[OH],[OH]

>  <m_chem_types>  (1038) 
1:backbone_n,2:backbone_c,3:backbone_n_mod,4:carboxyl,5:carboxyl

$$$$

     RDKit          2D

 12 11  0  0  0  0  0  0  0  0999 V2000
   -3.5281   -0.5638    0.0000 R   0  0  0  0  0  0  0  0  0  0  0  0
   -2.1179   -1.0748    0.0000 N   0  0  0  0  0  0  0  0  0  0  0  0
   -1.8553   -2.5517    0.0000 R   0  0  0  0  0  0  0  0  0  0  0  0
   -0.9702   -0.1090    0.0000 C   0  0  0  0  0  0  0  0  0  0  0  0
    0.4401   -0.6200    0.0000 C   0  0  0  0  0  0  0  0  0  0  0  0
    1.5878    0.3458    0.0000 C   0  0  0  0  0  0  0  0  0  0  0  0
    2.9981   -0.1653    0.0000 C   0  0  0  0  0  0  0  0  0  0  0  0
    4.1458    0.8005    0.0000 R   0  0  0  0  0  0  0  0  0  0  0  0
    3.2606   -1.6421    0.0000 O   0  0  0  0  0  0  0  0  0  0  0  0
   -1.2327    1.3678    0.0000 C   0  0  0  0  0  0  0  0  0  0  0  0
   -0.0850    2.3336    0.0000 R   0  0  0  0  0  0  0  0  0  0  0  0
   -2.6430    1.8789    0.0000 O   0  0  0  0  0  0  0  0  0  0  0  0
  1  2  1  0
  2  3  1  0
  2  4  1  0
  4  5  1  6
  5  6  1  0
  6  7  1  0
  7  8  1  0
  7  9  2  0
  4 10  1  0
 10 11  1  0
 10 12  2  0
M  ISO  4   1   1   3   3   8   2  11   4
V    1 *
V    3 *
V    8 *
V   11 *
M  END
>  <symbol>  (1039) 
E_g

>  <m_abbr>  (1039) 
E_g

>  <m_name>  (1039) 
L-Glutamate gamma-backbone

>  <m_type>  (1039) 
aa

>  <m_subtype>  (1039) 
modified

>  <m_Rgroups>  (1039) 
[H],[OH],[H],[OH]

>  <m_chem_types>  (1039) 
1:backbone_n,2:backbone_c,3:backbone_n_mod,4:carboxyl

$$$$

     RDKit          2D

 12 11  0  0  0  0  0  0  0  0999 V2000
   -3.5281   -0.5638    0.0000 R   0  0  0  0  0  0  0  0  0  0  0  0
   -2.1179   -1.0748    0.0000 N   0  0  0  0  0  0  0  0  0  0  0  0
   -1.8553   -2.5517    0.0000 R   0  0  0  0  0  0  0  0  0  0  0  0
   -0.9702   -0.1090    0.0000 C   0  0  0  0  0  0  0  0  0  0  0  0
    0.4401   -0.6200    0.0000 C   0  0  0  0  0  0  0  0  0  0  0  0
    1.5878    0.3458    0.0000 C   0  0  0  0  0  0  0  0  0  0  0  0
    2.9981   -0.1653    0.0000 C   0  0  0  0  0  0  0  0  0  0  0  0
    4.1458    0.8005    0.0000 R   0  0  0  0  0  0  0  0  0  0  0  0
    3.2606   -1.6421    0.0000 O   0  0  0  0  0  0  0  0  0  0  0  0
   -1.2327    1.3678    0.0000 C   0  0  0  0  0  0  0  0  0  0  0  0
   -0.0850    2.3336    0.0000 R   0  0  0  0  0  0  0  0  0  0  0  0
   -2.6430    1.8789    0.0000 O   0  0  0  0  0  0  0  0  0  0  0  0
  1  2  1  0
  2  3  1  0
  2  4  1  0
  4  5  1  1
  5  6  1  0
  6  7  1  0
  7  8  1  0
  7  9  2  0
  4 10  1  0
 10 11  1  0
 10 12  2  0
M  ISO  4   1   1   3   3   8   2  11   4
V    1 *
V    3 *
V    8 *
V   11 *
M  END
>  <symbol>  (1040) 
DGlu_g

>  <m_abbr>  (1040) 
DGlu_g

>  <m_name>  (1040) 
D-Glutamate gamma-backbone

>  <m_type>  (1040) 
aa

>  <m_subtype>  (1040) 
modified

>  <m_Rgroups>  (1040) 
[H],[OH],[H],[OH]

>  <m_chem_types>  (1040) 
1:backbone_n,2:backbone_c,3:backbone_n_mod,4:carboxyl

$$$$
